data_structure

_audit_creation_method RASPA-1.0
_audit_creation_date 2023-5-23
_audit_author_name 'Poobodin Mano'

_cell_length_a    26.4745
_cell_length_b    25.9877
_cell_length_c    43.6057
_cell_angle_alpha 90
_cell_angle_beta  89.9395
_cell_angle_gamma 89.9001
_cell_volume      30001.2

_symmetry_cell_setting          triclinic
_symmetry_space_group_name_Hall 'P 1'
_symmetry_space_group_name_H-M  'P 1'
_symmetry_Int_Tables_number     1

_symmetry_equiv_pos_as_xyz 'x,y,z'

loop_
_atom_site_label
_atom_site_type_symbol
_atom_site_fract_x
_atom_site_fract_y
_atom_site_fract_z
_atom_site_charge
C1       C      0.937680000000     0.350510000000     0.336970000000     0.343015   
C2       C      0.059090000000     0.226780000000     0.869860000000     0.346195   
C3       C      0.061610000000     0.394140000000     0.908520000000     0.349488   
C4       C      0.929490000000     0.276600000000     0.936870000000     0.345884   
C5       C      0.078450000000     0.241150000000     0.135150000000     0.345455   
C6       C      0.941960000000     0.370290000000     0.110090000000     0.345564   
C7       C      0.944420000000     0.272570000000     0.197780000000     0.345807   
C8       C      0.076820000000     0.404570000000     0.168850000000     0.346327   
C9       C      0.702720000000     0.602700000000     0.984230000000     0.346909   
C10      C      0.830720000000     0.472300000000     0.022050000000     0.346167   
C11      C      0.745390000000     0.462060000000     0.928340000000     0.343572   
C12      C      0.868010000000     0.597580000000     0.955430000000     0.345213   
C13      C      0.718840000000     0.583170000000     0.217880000000     0.346814   
C14      C      0.845810000000     0.456940000000     0.242780000000     0.344981   
C15      C      0.767760000000     0.472400000000     0.143830000000     0.345223   
C16      C      0.882770000000     0.602850000000     0.184430000000     0.346149   
C17      C      0.828830000000     0.186670000000     0.033880000000     0.344849   
C18      C      0.710170000000     0.056320000000     0.074830000000     0.346458   
C19      C      0.883700000000     0.065910000000     0.096010000000     0.34653    
C20      C      0.757110000000     0.184090000000     0.137470000000     0.343006   
C21      C      0.861990000000     0.035140000000     0.349120000000     0.346146   
C22      C      0.737880000000     0.178540000000     0.871230000000     0.346305   
C23      C      0.832950000000     0.167490000000     0.284400000000     0.345572   
C24      C      0.701570000000     0.036530000000     0.313810000000     0.345439   
C25      C      0.515040000000     0.426330000000     0.994990000000     0.347086   
C26      C      0.642240000000     0.298600000000     0.957870000000     0.343348   
C27      C      0.657260000000     0.383990000000     0.050770000000     0.345931   
C28      C      0.523600000000     0.258590000000     0.027470000000     0.345851   
C29      C      0.532030000000     0.397920000000     0.259660000000     0.349545   
C30      C      0.662640000000     0.278620000000     0.235330000000     0.344888   
C31      C      0.654280000000     0.354300000000     0.334720000000     0.345755   
C32      C      0.529180000000     0.234990000000     0.301340000000     0.34531    
C33      C      0.365510000000     0.566170000000     0.966720000000     0.347262   
C34      C      0.236110000000     0.690220000000     0.991550000000     0.345601   
C35      C      0.314270000000     0.676780000000     0.892200000000     0.34475    
C36      C      0.202410000000     0.545210000000     0.932660000000     0.3462     
C37      C      0.258390000000     0.670970000000     0.268520000000     0.34693    
C38      C      0.385710000000     0.541770000000     0.231720000000     0.346355   
C39      C      0.220800000000     0.547900000000     0.200800000000     0.345594   
C40      C      0.342520000000     0.683890000000     0.174670000000     0.344406   
C41      C      0.556910000000     0.748440000000     0.009750000000     0.348084   
C42      C      0.430840000000     0.868780000000     0.982200000000     0.345269   
C43      C      0.434520000000     0.793750000000     0.082290000000     0.347468   
C44      C      0.562170000000     0.912720000000     0.050580000000     0.346118   
C45      C      0.569790000000     0.723720000000     0.245980000000     0.346995   
C46      C      0.445150000000     0.850100000000     0.207000000000     0.342723   
C47      C      0.425500000000     0.766390000000     0.299940000000     0.346194   
C48      C      0.561050000000     0.891270000000     0.279310000000     0.345854   
C49      C      0.386220000000     0.109240000000     0.060560000000     0.346535   
C50      C      0.261710000000     0.975900000000     0.028830000000     0.34356    
C51      C      0.351080000000     0.965820000000     0.117910000000     0.346751   
C52      C      0.224000000000     0.102440000000     0.097650000000     0.346043   
C53      C      0.208370000000     0.085230000000     0.343800000000     0.345094   
C54      C      0.334780000000     0.962050000000     0.884650000000     0.34333    
C55      C      0.260910000000     0.961170000000     0.282750000000     0.345199   
C56      C      0.381250000000     0.091090000000     0.324950000000     0.345614   
C57      C      0.147880000000     0.771050000000     0.357770000000     0.344756   
C58      C      0.008800000000     0.895790000000     0.884090000000     0.344973   
C59      C      0.013360000000     0.737960000000     0.920860000000     0.346466   
C60      C      0.150630000000     0.868350000000     0.943490000000     0.346463   
C61      C      0.159980000000     0.868920000000     0.186890000000     0.345975   
C62      C      0.024420000000     0.753270000000     0.160320000000     0.348601   
C63      C      0.030430000000     0.922360000000     0.122540000000     0.34708    
C64      C      0.145060000000     0.794320000000     0.087100000000     0.344023   
C65      C      0.185630000000     0.868940000000     0.239150000000     0.0345877  
C66      C      0.219150000000     0.930500000000     0.205030000000     0.0313697  
C67      C      0.245240000000     0.953490000000     0.229250000000     0.0330344  
C68      C      0.211210000000     0.892350000000     0.263440000000     0.0337773  
C69      C      0.191610000000     0.872290000000     0.991840000000     0.0368148  
C70      C      0.200800000000     0.940740000000     0.956740000000     0.0345443  
C71      C      0.228730000000     0.968050000000     0.978420000000     0.0320691  
C72      C      0.219700000000     0.899470000000     0.013470000000     0.0346801  
C73      C      0.445620000000     0.887540000000     0.157260000000     0.0332956  
C74      C      0.371280000000     0.889780000000     0.187170000000     0.0339312  
C75      C      0.347540000000     0.919070000000     0.164590000000     0.0373932  
C76      C      0.421740000000     0.916700000000     0.134610000000     0.0371122  
C77      C      0.369190000000     0.927290000000     0.963160000000     0.0351367  
C78      C      0.412710000000     0.872670000000     0.928870000000     0.0344988  
C79      C      0.388800000000     0.896640000000     0.904160000000     0.0336994  
C80      C      0.345070000000     0.951030000000     0.938420000000     0.0358171  
C81      C      0.230620000000     0.677470000000     0.320280000000     0.0357539  
C82      C      0.208870000000     0.742150000000     0.284660000000     0.0343851  
C83      C      0.180540000000     0.767170000000     0.307150000000     0.0350324  
C84      C      0.202880000000     0.702970000000     0.342930000000     0.0349916  
C85      C      0.362630000000     0.749600000000     0.101610000000     0.036953   
C86      C      0.431630000000     0.766640000000     0.134240000000     0.0359057  
C87      C      0.408310000000     0.738890000000     0.157660000000     0.0345926  
C88      C      0.339250000000     0.721760000000     0.125050000000     0.0341241  
C89      C      0.242570000000     0.735760000000     0.038780000000     0.0323689  
C90      C      0.164060000000     0.730440000000     0.013430000000     0.0330837  
C91      C      0.141090000000     0.756800000000     0.037570000000     0.0326092  
C92      C      0.219520000000     0.762090000000     0.063050000000     0.0319892  
C93      C      0.350130000000     0.672870000000     0.342320000000     0.0343286  
C94      C      0.349340000000     0.751640000000     0.869240000000     0.034551   
C95      C      0.377440000000     0.774340000000     0.845760000000     0.0355415  
C96      C      0.378150000000     0.695590000000     0.318850000000     0.0359497  
C97      C      0.423160000000     0.459780000000     0.223880000000     0.0345921  
C98      C      0.462650000000     0.519610000000     0.256710000000     0.0346346  
C99      C      0.500180000000     0.483390000000     0.263390000000     0.0351223  
C100     C      0.460280000000     0.423460000000     0.230790000000     0.0354674  
C101     C      0.457350000000     0.207800000000     0.329550000000     0.0346412  
C102     C      0.496060000000     0.150620000000     0.294610000000     0.0352386  
C103     C      0.458380000000     0.114240000000     0.300440000000     0.0350543  
C104     C      0.419890000000     0.171470000000     0.335440000000     0.0349403  
C105     C      0.440400000000     0.471610000000     0.008710000000     0.0340421  
C106     C      0.483930000000     0.493910000000     0.963370000000     0.0347991  
C107     C      0.446150000000     0.529620000000     0.956350000000     0.0352753  
C108     C      0.402740000000     0.507340000000     0.001730000000     0.0354009  
C109     C      0.472670000000     0.218370000000     0.065410000000     0.0351025  
C110     C      0.478450000000     0.182080000000     0.015910000000     0.0337747  
C111     C      0.443780000000     0.144180000000     0.024290000000     0.034523   
C112     C      0.437660000000     0.180730000000     0.073710000000     0.0345213  
C113     C      0.928770000000     0.977800000000     0.336370000000     0.0348523  
C114     C      0.907110000000     0.991000000000     0.888300000000     0.0348469  
C115     C      0.944270000000     0.955760000000     0.897130000000     0.0345827  
C116     C      0.966010000000     0.942730000000     0.345200000000     0.0348222  
C117     C      0.647000000000     0.967190000000     0.326630000000     0.0343838  
C118     C      0.644350000000     0.003090000000     0.276930000000     0.0346246  
C119     C      0.608750000000     0.966350000000     0.268230000000     0.0340675  
C120     C      0.611150000000     0.930600000000     0.317970000000     0.0351889  
C121     C      0.714870000000     0.253350000000     0.940690000000     0.0340274  
C122     C      0.644770000000     0.262580000000     0.907740000000     0.033653   
C123     C      0.669080000000     0.232360000000     0.885710000000     0.0367327  
C124     C      0.738820000000     0.222660000000     0.918840000000     0.0378454  
C125     C      0.939800000000     0.000000000000     0.079700000000     0.0356662  
C126     C      0.947170000000     0.034070000000     0.129660000000     0.0357662  
C127     C      0.984240000000     0.997450000000     0.136420000000     0.0353098  
C128     C      0.977170000000     0.963780000000     0.086350000000     0.0348112  
C129     C      0.628660000000     0.035970000000     0.054990000000     0.0353018  
C130     C      0.677020000000     0.972130000000     0.079930000000     0.0348393  
C131     C      0.639570000000     0.935950000000     0.073960000000     0.03473    
C132     C      0.590920000000     0.999610000000     0.049060000000     0.034643   
C133     C      0.736710000000     0.186680000000     0.190530000000     0.0331316  
C134     C      0.715850000000     0.257160000000     0.158930000000     0.0358445  
C135     C      0.692140000000     0.281260000000     0.183750000000     0.0343854  
C136     C      0.713460000000     0.210900000000     0.215420000000     0.0337085  
C137     C      0.681510000000     0.641960000000     0.252960000000     0.0356223  
C138     C      0.638600000000     0.620340000000     0.207340000000     0.0350765  
C139     C      0.600970000000     0.656230000000     0.214320000000     0.0347493  
C140     C      0.643940000000     0.677840000000     0.259920000000     0.0342717  
C141     C      0.964400000000     0.626940000000     0.166510000000     0.0347758  
C142     C      0.909430000000     0.689890000000     0.186840000000     0.0349034  
C143     C      0.945300000000     0.727860000000     0.180930000000     0.0353549  
C144     C      0.000630000000     0.664940000000     0.160930000000     0.0352189  
C145     C      0.735130000000     0.475540000000     0.093080000000     0.0347345  
C146     C      0.727890000000     0.399220000000     0.122060000000     0.0354093  
C147     C      0.699780000000     0.376910000000     0.098490000000     0.0351338  
C148     C      0.707300000000     0.453100000000     0.069430000000     0.0358485  
C149     C      0.626860000000     0.626940000000     0.009890000000     0.0345074  
C150     C      0.663880000000     0.683200000000     0.973850000000     0.0345187  
C151     C      0.626880000000     0.719970000000     0.980170000000     0.0358213  
C152     C      0.589440000000     0.663620000000     0.015990000000     0.0351066  
C153     C      0.917170000000     0.637630000000     0.916600000000     0.0349148  
C154     C      0.932570000000     0.657000000000     0.968630000000     0.0346438  
C155     C      0.969440000000     0.692470000000     0.959910000000     0.0350766  
C156     C      0.953920000000     0.673190000000     0.907870000000     0.0343886  
C157     C      0.677780000000     0.410590000000     0.910080000000     0.0349043  
C158     C      0.749820000000     0.423060000000     0.379050000000     0.0341901  
C159     C      0.726740000000     0.395660000000     0.355330000000     0.0365381  
C160     C      0.654660000000     0.383520000000     0.886320000000     0.0352594  
C161     C      0.149850000000     0.496540000000     0.213920000000     0.0346309  
C162     C      0.178680000000     0.498690000000     0.162700000000     0.0350957  
C163     C      0.142370000000     0.462220000000     0.154660000000     0.0344229  
C164     C      0.113350000000     0.460310000000     0.205850000000     0.0350555  
C165     C      0.182310000000     0.148310000000     0.137560000000     0.0351634  
C166     C      0.152340000000     0.154400000000     0.086730000000     0.034896   
C167     C      0.115490000000     0.189440000000     0.096210000000     0.0349471  
C168     C      0.145510000000     0.183500000000     0.147030000000     0.034484   
C169     C      0.880630000000     0.211770000000     0.210320000000     0.0340797  
C170     C      0.921320000000     0.258140000000     0.249680000000     0.0359488  
C171     C      0.892790000000     0.232020000000     0.271600000000     0.0352937  
C172     C      0.852660000000     0.185040000000     0.232280000000     0.0355356  
C173     C      0.885540000000     0.437810000000     0.096250000000     0.0352727  
C174     C      0.910200000000     0.376190000000     0.059400000000     0.0353909  
C175     C      0.881630000000     0.401600000000     0.037230000000     0.0341723  
C176     C      0.857650000000     0.463820000000     0.073890000000     0.0355111  
C177     C      0.138630000000     0.420740000000     0.931320000000     0.0354962  
C178     C      0.086780000000     0.481950000000     0.906630000000     0.035561   
C179     C      0.122820000000     0.520060000000     0.912250000000     0.0347506  
C180     C      0.174340000000     0.458860000000     0.937220000000     0.0349209  
C181     C      0.100550000000     0.147580000000     0.881030000000     0.0353644  
C182     C      0.120750000000     0.192990000000     0.335810000000     0.0350677  
C183     C      0.158700000000     0.157320000000     0.329300000000     0.0351417  
C184     C      0.138480000000     0.111690000000     0.874450000000     0.0355329  
C185     C      0.906110000000     0.276350000000     0.989570000000     0.0349765  
C186     C      0.869380000000     0.216430000000     0.955690000000     0.0318072  
C187     C      0.843240000000     0.194140000000     0.980190000000     0.0332015  
C188     C      0.880550000000     0.253580000000     0.014110000000     0.033339   
C189     C      0.937590000000     0.380540000000     0.285570000000     0.0320121  
C190     C      0.864720000000     0.391180000000     0.316100000000     0.035203   
C191     C      0.841430000000     0.418180000000     0.292200000000     0.0342905  
C192     C      0.914290000000     0.407160000000     0.261670000000     0.0345116  
C193     C      0.937670000000     0.350510000000     0.836960000000     0.3429     
C194     C      0.059080000000     0.226770000000     0.369860000000     0.346381   
C195     C      0.061620000000     0.394130000000     0.408510000000     0.349448   
C196     C      0.929490000000     0.276600000000     0.436870000000     0.345857   
C197     C      0.078460000000     0.241150000000     0.635150000000     0.345406   
C198     C      0.941960000000     0.370290000000     0.610100000000     0.345634   
C199     C      0.944410000000     0.272570000000     0.697790000000     0.345703   
C200     C      0.076820000000     0.404570000000     0.668850000000     0.346333   
C201     C      0.702720000000     0.602690000000     0.484230000000     0.346963   
C202     C      0.830720000000     0.472290000000     0.522050000000     0.346493   
C203     C      0.745390000000     0.462050000000     0.428340000000     0.343505   
C204     C      0.868010000000     0.597580000000     0.455430000000     0.345211   
C205     C      0.718840000000     0.583170000000     0.717880000000     0.346908   
C206     C      0.845810000000     0.456940000000     0.742780000000     0.345028   
C207     C      0.767760000000     0.472410000000     0.643830000000     0.34518    
C208     C      0.882770000000     0.602850000000     0.684430000000     0.346039   
C209     C      0.828830000000     0.186670000000     0.533880000000     0.345064   
C210     C      0.710170000000     0.056310000000     0.574820000000     0.346319   
C211     C      0.883700000000     0.065910000000     0.596010000000     0.346548   
C212     C      0.757110000000     0.184090000000     0.637470000000     0.343055   
C213     C      0.861990000000     0.035140000000     0.849120000000     0.346167   
C214     C      0.737880000000     0.178550000000     0.371230000000     0.346313   
C215     C      0.832950000000     0.167490000000     0.784400000000     0.345567   
C216     C      0.701570000000     0.036530000000     0.813810000000     0.345446   
C217     C      0.515030000000     0.426330000000     0.494990000000     0.346642   
C218     C      0.642240000000     0.298600000000     0.457870000000     0.343274   
C219     C      0.657260000000     0.383990000000     0.550770000000     0.345995   
C220     C      0.523600000000     0.258590000000     0.527480000000     0.345844   
C221     C      0.532030000000     0.397910000000     0.759660000000     0.349592   
C222     C      0.662650000000     0.278620000000     0.735330000000     0.344796   
C223     C      0.654290000000     0.354300000000     0.834720000000     0.345772   
C224     C      0.529180000000     0.234990000000     0.801340000000     0.34521    
C225     C      0.365510000000     0.566180000000     0.466720000000     0.347271   
C226     C      0.236110000000     0.690220000000     0.491560000000     0.345267   
C227     C      0.314270000000     0.676780000000     0.392200000000     0.344721   
C228     C      0.202410000000     0.545210000000     0.432660000000     0.346245   
C229     C      0.258390000000     0.670970000000     0.768520000000     0.347039   
C230     C      0.385710000000     0.541770000000     0.731720000000     0.346425   
C231     C      0.220800000000     0.547900000000     0.700800000000     0.345633   
C232     C      0.342520000000     0.683890000000     0.674670000000     0.344372   
C233     C      0.556910000000     0.748430000000     0.509750000000     0.348362   
C234     C      0.430850000000     0.868780000000     0.482200000000     0.34491    
C235     C      0.434520000000     0.793750000000     0.582280000000     0.347576   
C236     C      0.562170000000     0.912720000000     0.550580000000     0.346168   
C237     C      0.569790000000     0.723710000000     0.745980000000     0.34697    
C238     C      0.445150000000     0.850100000000     0.707000000000     0.342725   
C239     C      0.425500000000     0.766380000000     0.799940000000     0.346186   
C240     C      0.561050000000     0.891270000000     0.779310000000     0.345905   
C241     C      0.386220000000     0.109240000000     0.560560000000     0.346447   
C242     C      0.261710000000     0.975910000000     0.528830000000     0.343599   
C243     C      0.351080000000     0.965820000000     0.617910000000     0.346715   
C244     C      0.224000000000     0.102440000000     0.597650000000     0.346231   
C245     C      0.208370000000     0.085230000000     0.843800000000     0.345122   
C246     C      0.334780000000     0.962050000000     0.384650000000     0.343383   
C247     C      0.260910000000     0.961170000000     0.782750000000     0.345258   
C248     C      0.381250000000     0.091090000000     0.824950000000     0.345573   
C249     C      0.147890000000     0.771050000000     0.857760000000     0.344789   
C250     C      0.008800000000     0.895790000000     0.384090000000     0.344976   
C251     C      0.013360000000     0.737960000000     0.420860000000     0.346424   
C252     C      0.150630000000     0.868350000000     0.443490000000     0.346371   
C253     C      0.159980000000     0.868930000000     0.686890000000     0.346133   
C254     C      0.024420000000     0.753270000000     0.660320000000     0.348648   
C255     C      0.030430000000     0.922370000000     0.622550000000     0.347059   
C256     C      0.145060000000     0.794320000000     0.587100000000     0.344003   
C257     C      0.185630000000     0.868940000000     0.739150000000     0.0346182  
C258     C      0.219150000000     0.930500000000     0.705030000000     0.0313647  
C259     C      0.245240000000     0.953490000000     0.729250000000     0.0330566  
C260     C      0.211220000000     0.892340000000     0.763440000000     0.0337298  
C261     C      0.191610000000     0.872300000000     0.491840000000     0.036412   
C262     C      0.200800000000     0.940740000000     0.456740000000     0.0345546  
C263     C      0.228730000000     0.968040000000     0.478420000000     0.031777   
C264     C      0.219700000000     0.899470000000     0.513470000000     0.0351428  
C265     C      0.445620000000     0.887540000000     0.657270000000     0.0333799  
C266     C      0.371280000000     0.889780000000     0.687170000000     0.0339549  
C267     C      0.347540000000     0.919070000000     0.664590000000     0.0373462  
C268     C      0.421750000000     0.916700000000     0.634610000000     0.0370457  
C269     C      0.369190000000     0.927290000000     0.463160000000     0.0350637  
C270     C      0.412710000000     0.872670000000     0.428870000000     0.0344605  
C271     C      0.388800000000     0.896640000000     0.404160000000     0.0337161  
C272     C      0.345070000000     0.951020000000     0.438420000000     0.0358292  
C273     C      0.230620000000     0.677470000000     0.820280000000     0.035735   
C274     C      0.208870000000     0.742150000000     0.784660000000     0.0343755  
C275     C      0.180540000000     0.767170000000     0.807150000000     0.0351114  
C276     C      0.202890000000     0.702970000000     0.842930000000     0.0349375  
C277     C      0.362630000000     0.749600000000     0.601610000000     0.0369206  
C278     C      0.431630000000     0.766640000000     0.634240000000     0.0358985  
C279     C      0.408310000000     0.738890000000     0.657660000000     0.0346083  
C280     C      0.339260000000     0.721760000000     0.625050000000     0.0341731  
C281     C      0.242570000000     0.735750000000     0.538780000000     0.0324422  
C282     C      0.164060000000     0.730440000000     0.513430000000     0.0335865  
C283     C      0.141090000000     0.756800000000     0.537570000000     0.0324953  
C284     C      0.219520000000     0.762090000000     0.563050000000     0.0319902  
C285     C      0.350140000000     0.672870000000     0.842320000000     0.0343766  
C286     C      0.349340000000     0.751640000000     0.369240000000     0.034577   
C287     C      0.377440000000     0.774340000000     0.345760000000     0.0355546  
C288     C      0.378150000000     0.695590000000     0.818850000000     0.0359433  
C289     C      0.423160000000     0.459780000000     0.723870000000     0.0345658  
C290     C      0.462650000000     0.519610000000     0.756710000000     0.034575   
C291     C      0.500180000000     0.483390000000     0.763380000000     0.0351953  
C292     C      0.460280000000     0.423460000000     0.730790000000     0.0354699  
C293     C      0.457350000000     0.207800000000     0.829540000000     0.034707   
C294     C      0.496060000000     0.150620000000     0.794620000000     0.0352845  
C295     C      0.458380000000     0.114240000000     0.800450000000     0.0350452  
C296     C      0.419890000000     0.171480000000     0.835430000000     0.0349442  
C297     C      0.440400000000     0.471610000000     0.508710000000     0.0342619  
C298     C      0.483930000000     0.493910000000     0.463370000000     0.0347884  
C299     C      0.446150000000     0.529630000000     0.456350000000     0.0351998  
C300     C      0.402750000000     0.507340000000     0.501730000000     0.0356675  
C301     C      0.472670000000     0.218370000000     0.565410000000     0.035138   
C302     C      0.478450000000     0.182080000000     0.515910000000     0.0342612  
C303     C      0.443780000000     0.144180000000     0.524290000000     0.0343509  
C304     C      0.437660000000     0.180730000000     0.573710000000     0.0345067  
C305     C      0.928770000000     0.977800000000     0.836370000000     0.0348569  
C306     C      0.907110000000     0.991000000000     0.388300000000     0.0348453  
C307     C      0.944260000000     0.955760000000     0.397130000000     0.0345462  
C308     C      0.966010000000     0.942720000000     0.845200000000     0.0348323  
C309     C      0.647000000000     0.967190000000     0.826620000000     0.034427   
C310     C      0.644360000000     0.003090000000     0.776940000000     0.0347232  
C311     C      0.608750000000     0.966350000000     0.768230000000     0.0339993  
C312     C      0.611150000000     0.930600000000     0.817960000000     0.0352594  
C313     C      0.714870000000     0.253360000000     0.440690000000     0.0340089  
C314     C      0.644770000000     0.262580000000     0.407740000000     0.0336361  
C315     C      0.669080000000     0.232360000000     0.385710000000     0.0367311  
C316     C      0.738820000000     0.222670000000     0.418840000000     0.0378335  
C317     C      0.939800000000     0.000000000000     0.579700000000     0.0356823  
C318     C      0.947170000000     0.034070000000     0.629660000000     0.035831   
C319     C      0.984240000000     0.997450000000     0.636430000000     0.0352051  
C320     C      0.977170000000     0.963790000000     0.586350000000     0.0348393  
C321     C      0.628660000000     0.035970000000     0.554990000000     0.0353099  
C322     C      0.677020000000     0.972130000000     0.579920000000     0.0348898  
C323     C      0.639570000000     0.935950000000     0.573960000000     0.0347416  
C324     C      0.590920000000     0.999610000000     0.549070000000     0.0346907  
C325     C      0.736710000000     0.186670000000     0.690530000000     0.033102   
C326     C      0.715850000000     0.257160000000     0.658930000000     0.0358426  
C327     C      0.692140000000     0.281260000000     0.683750000000     0.0343894  
C328     C      0.713460000000     0.210900000000     0.715420000000     0.0337274  
C329     C      0.681510000000     0.641960000000     0.752950000000     0.0357268  
C330     C      0.638600000000     0.620330000000     0.707340000000     0.0350732  
C331     C      0.600970000000     0.656220000000     0.714320000000     0.0347337  
C332     C      0.643940000000     0.677840000000     0.759920000000     0.0342217  
C333     C      0.964410000000     0.626940000000     0.666510000000     0.0347142  
C334     C      0.909430000000     0.689890000000     0.686840000000     0.0349366  
C335     C      0.945300000000     0.727870000000     0.680930000000     0.0353012  
C336     C      0.000630000000     0.664940000000     0.660930000000     0.0352747  
C337     C      0.735130000000     0.475540000000     0.593080000000     0.0347765  
C338     C      0.727890000000     0.399220000000     0.622050000000     0.0353866  
C339     C      0.699780000000     0.376910000000     0.598490000000     0.0351632  
C340     C      0.707300000000     0.453100000000     0.569430000000     0.0357995  
C341     C      0.626860000000     0.626940000000     0.509890000000     0.0349338  
C342     C      0.663880000000     0.683190000000     0.473850000000     0.0346068  
C343     C      0.626880000000     0.719970000000     0.480160000000     0.035412   
C344     C      0.589450000000     0.663620000000     0.515990000000     0.0350548  
C345     C      0.917170000000     0.637630000000     0.416590000000     0.034799   
C346     C      0.932570000000     0.657000000000     0.468630000000     0.0346163  
C347     C      0.969430000000     0.692480000000     0.459910000000     0.0350639  
C348     C      0.953920000000     0.673190000000     0.407870000000     0.0344229  
C349     C      0.677780000000     0.410590000000     0.410080000000     0.0349434  
C350     C      0.749820000000     0.423060000000     0.879050000000     0.034178   
C351     C      0.726740000000     0.395660000000     0.855330000000     0.0365581  
C352     C      0.654650000000     0.383530000000     0.386320000000     0.0351977  
C353     C      0.149850000000     0.496540000000     0.713920000000     0.034574   
C354     C      0.178680000000     0.498680000000     0.662700000000     0.0350837  
C355     C      0.142370000000     0.462220000000     0.654660000000     0.0344349  
C356     C      0.113350000000     0.460310000000     0.705840000000     0.0351679  
C357     C      0.182320000000     0.148310000000     0.637560000000     0.0351323  
C358     C      0.152340000000     0.154400000000     0.586730000000     0.0349392  
C359     C      0.115490000000     0.189430000000     0.596210000000     0.0348858  
C360     C      0.145510000000     0.183490000000     0.647030000000     0.034557   
C361     C      0.880630000000     0.211770000000     0.710320000000     0.0340914  
C362     C      0.921320000000     0.258140000000     0.749680000000     0.0359855  
C363     C      0.892800000000     0.232020000000     0.771600000000     0.0352366  
C364     C      0.852660000000     0.185040000000     0.732280000000     0.0355284  
C365     C      0.885540000000     0.437810000000     0.596250000000     0.0352702  
C366     C      0.910200000000     0.376190000000     0.559400000000     0.0353851  
C367     C      0.881640000000     0.401600000000     0.537230000000     0.0342443  
C368     C      0.857650000000     0.463810000000     0.573890000000     0.0355551  
C369     C      0.138630000000     0.420740000000     0.431320000000     0.0354861  
C370     C      0.086780000000     0.481950000000     0.406630000000     0.0354895  
C371     C      0.122820000000     0.520060000000     0.412250000000     0.0347745  
C372     C      0.174340000000     0.458860000000     0.437220000000     0.0348988  
C373     C      0.100540000000     0.147570000000     0.381030000000     0.0353203  
C374     C      0.120760000000     0.192990000000     0.835800000000     0.0348682  
C375     C      0.158700000000     0.157320000000     0.829300000000     0.0352506  
C376     C      0.138480000000     0.111690000000     0.374450000000     0.0355172  
C377     C      0.906110000000     0.276350000000     0.489570000000     0.0345606  
C378     C      0.869380000000     0.216430000000     0.455690000000     0.0318389  
C379     C      0.843240000000     0.194140000000     0.480190000000     0.0329076  
C380     C      0.880550000000     0.253580000000     0.514110000000     0.0337702  
C381     C      0.937590000000     0.380540000000     0.785570000000     0.0320342  
C382     C      0.864710000000     0.391180000000     0.816100000000     0.0351604  
C383     C      0.841430000000     0.418180000000     0.792200000000     0.03432    
C384     C      0.914290000000     0.407160000000     0.761670000000     0.0344712  
Cd1      Cd     0.995360000000     0.312150000000     0.888500000000     0.512768   
Cd2      Cd     0.009120000000     0.321730000000     0.153330000000     0.514824   
Cd3      Cd     0.785410000000     0.532090000000     0.973500000000     0.513562   
Cd4      Cd     0.805850000000     0.526350000000     0.196870000000     0.51247    
Cd5      Cd     0.793540000000     0.126030000000     0.085210000000     0.513891   
Cd6      Cd     0.783050000000     0.105100000000     0.329840000000     0.514856   
Cd7      Cd     0.585400000000     0.343770000000     0.007400000000     0.513376   
Cd8      Cd     0.596720000000     0.316970000000     0.282930000000     0.512613   
Cd9      Cd     0.278130000000     0.622340000000     0.945560000000     0.513095   
Cd10     Cd     0.303600000000     0.612500000000     0.219470000000     0.513773   
Cd11     Cd     0.493870000000     0.831810000000     0.031510000000     0.512949   
Cd12     Cd     0.499620000000     0.806630000000     0.257940000000     0.513733   
Cd13     Cd     0.306310000000     0.038380000000     0.076140000000     0.514769   
Cd14     Cd     0.296860000000     0.022140000000     0.333780000000     0.514008   
Cd15     Cd     0.081550000000     0.818410000000     0.901970000000     0.515292   
Cd16     Cd     0.091480000000     0.834350000000     0.139780000000     0.513337   
Cd17     Cd     0.995360000000     0.312150000000     0.388500000000     0.51276    
Cd18     Cd     0.009120000000     0.321730000000     0.653330000000     0.514835   
Cd19     Cd     0.785420000000     0.532080000000     0.473500000000     0.513474   
Cd20     Cd     0.805860000000     0.526350000000     0.696870000000     0.512475   
Cd21     Cd     0.793550000000     0.126030000000     0.585220000000     0.513906   
Cd22     Cd     0.783050000000     0.105100000000     0.829840000000     0.514854   
Cd23     Cd     0.585400000000     0.343780000000     0.507400000000     0.513624   
Cd24     Cd     0.596720000000     0.316970000000     0.782930000000     0.512601   
Cd25     Cd     0.278130000000     0.622350000000     0.445560000000     0.51307    
Cd26     Cd     0.303600000000     0.612500000000     0.719470000000     0.513773   
Cd27     Cd     0.493870000000     0.831810000000     0.531510000000     0.513092   
Cd28     Cd     0.499630000000     0.806630000000     0.757940000000     0.513726   
Cd29     Cd     0.306310000000     0.038370000000     0.576140000000     0.514799   
Cd30     Cd     0.296860000000     0.022140000000     0.833780000000     0.514001   
Cd31     Cd     0.081550000000     0.818420000000     0.401970000000     0.515275   
Cd32     Cd     0.091480000000     0.834350000000     0.639780000000     0.51335    
H1       H      0.162050000000     0.835940000000     0.244170000000     0.0456935  
H2       H      0.222610000000     0.947510000000     0.182430000000     0.0536269  
H3       H      0.268060000000     0.987090000000     0.224280000000     0.0509246  
H4       H      0.206610000000     0.876430000000     0.286220000000     0.0485595  
H5       H      0.177490000000     0.834760000000     0.998130000000     0.0493051  
H6       H      0.194060000000     0.958640000000     0.934650000000     0.0557671  
H7       H      0.242120000000     0.006080000000     0.972270000000     0.0504454  
H8       H      0.226180000000     0.881670000000     0.035630000000     0.051602   
H9       H      0.484630000000     0.876360000000     0.153550000000     0.0525922  
H10      H      0.349860000000     0.880120000000     0.207590000000     0.0513706  
H11      H      0.308890000000     0.930910000000     0.168480000000     0.0459035  
H12      H      0.443180000000     0.926650000000     0.114250000000     0.0557969  
H13      H      0.360610000000     0.940990000000     0.986080000000     0.0559966  
H14      H      0.439480000000     0.842130000000     0.923960000000     0.050796   
H15      H      0.398360000000     0.883930000000     0.881240000000     0.04755    
H16      H      0.319270000000     0.982390000000     0.943210000000     0.0482073  
H17      H      0.248770000000     0.641450000000     0.326270000000     0.0515279  
H18      H      0.210050000000     0.758930000000     0.261920000000     0.0481402  
H19      H      0.160460000000     0.801910000000     0.300780000000     0.0456916  
H20      H      0.201330000000     0.685980000000     0.865630000000     0.0581904  
H21      H      0.343380000000     0.752810000000     0.079780000000     0.0440875  
H22      H      0.468630000000     0.782750000000     0.138730000000     0.0518468  
H23      H      0.428000000000     0.735340000000     0.179360000000     0.0588734  
H24      H      0.302840000000     0.704420000000     0.120360000000     0.0505978  
H25      H      0.282740000000     0.728020000000     0.040190000000     0.0492445  
H26      H      0.140540000000     0.718600000000     0.994350000000     0.0590519  
H27      H      0.100830000000     0.764120000000     0.036070000000     0.0534084  
H28      H      0.242780000000     0.773740000000     0.082280000000     0.0462539  
H29      H      0.340770000000     0.632440000000     0.340130000000     0.0530721  
H30      H      0.338880000000     0.775200000000     0.888780000000     0.0491376  
H31      H      0.387500000000     0.814510000000     0.848000000000     0.0494163  
H32      H      0.388980000000     0.671850000000     0.299460000000     0.0602335  
H33      H      0.393430000000     0.448660000000     0.208130000000     0.0504237  
H34      H      0.464940000000     0.557120000000     0.267520000000     0.0501579  
H35      H      0.529820000000     0.494260000000     0.279250000000     0.050214   
H36      H      0.457620000000     0.385840000000     0.220150000000     0.0503614  
H37      H      0.455260000000     0.244320000000     0.341520000000     0.0509548  
H38      H      0.525380000000     0.140890000000     0.278210000000     0.0502274  
H39      H      0.460110000000     0.077790000000     0.288370000000     0.0511632  
H40      H      0.390510000000     0.181510000000     0.351730000000     0.0508484  
H41      H      0.436450000000     0.449420000000     0.029640000000     0.0505517  
H42      H      0.515260000000     0.489720000000     0.947530000000     0.0497742  
H43      H      0.449790000000     0.551520000000     0.935290000000     0.0504435  
H44      H      0.371220000000     0.511120000000     0.017480000000     0.0509986  
H45      H      0.482880000000     0.247030000000     0.082370000000     0.0511514  
H46      H      0.493470000000     0.181250000000     0.992770000000     0.0503253  
H47      H      0.433380000000     0.115660000000     0.007280000000     0.050573   
H48      H      0.422360000000     0.181800000000     0.096780000000     0.050556   
H49      H      0.923980000000     0.985280000000     0.312080000000     0.0505472  
H50      H      0.884680000000     0.009170000000     0.906100000000     0.050915   
H51      H      0.949020000000     0.948120000000     0.921400000000     0.0498579  
H52      H      0.988340000000     0.924540000000     0.327370000000     0.0517315  
H53      H      0.661230000000     0.965980000000     0.849920000000     0.0505056  
H54      H      0.656450000000     0.030940000000     0.259930000000     0.0503223  
H55      H      0.594820000000     0.967350000000     0.244860000000     0.0500079  
H56      H      0.599250000000     0.902530000000     0.834890000000     0.0507309  
H57      H      0.734410000000     0.260500000000     0.962120000000     0.0518156  
H58      H      0.607200000000     0.276810000000     0.902600000000     0.0527095  
H59      H      0.649520000000     0.224860000000     0.364340000000     0.0553442  
H60      H      0.775630000000     0.207180000000     0.924330000000     0.0445635  
H61      H      0.923080000000     0.999360000000     0.057010000000     0.0502847  
H62      H      0.936250000000     0.060960000000     0.147500000000     0.0508115  
H63      H      0.000580000000     0.997580000000     0.159220000000     0.050391   
H64      H      0.987660000000     0.936610000000     0.068560000000     0.0514343  
H65      H      0.622960000000     0.075090000000     0.047030000000     0.0506162  
H66      H      0.710360000000     0.959350000000     0.092210000000     0.0511397  
H67      H      0.645710000000     0.896860000000     0.081860000000     0.0510386  
H68      H      0.557540000000     0.011970000000     0.036670000000     0.0503433  
H69      H      0.752850000000     0.148810000000     0.194130000000     0.0493868  
H70      H      0.716000000000     0.276710000000     0.137020000000     0.044368   
H71      H      0.674650000000     0.318480000000     0.179950000000     0.0497556  
H72      H      0.713130000000     0.190910000000     0.237250000000     0.0586875  
H73      H      0.712800000000     0.637840000000     0.268800000000     0.0511487  
H74      H      0.635120000000     0.598650000000     0.186200000000     0.0504843  
H75      H      0.569890000000     0.660740000000     0.198360000000     0.0499897  
H76      H      0.647720000000     0.699830000000     0.280920000000     0.0504274  
H77      H      0.973460000000     0.587530000000     0.160430000000     0.0504628  
H78      H      0.873930000000     0.701620000000     0.197150000000     0.0507016  
H79      H      0.935950000000     0.767270000000     0.186880000000     0.0506325  
H80      H      0.036130000000     0.653430000000     0.150540000000     0.0503616  
H81      H      0.747610000000     0.514950000000     0.090150000000     0.0540767  
H82      H      0.734990000000     0.376570000000     0.142490000000     0.0455845  
H83      H      0.686040000000     0.338050000000     0.101700000000     0.0495007  
H84      H      0.699790000000     0.475930000000     0.049120000000     0.0617251  
H85      H      0.625550000000     0.590730000000     0.022230000000     0.0499904  
H86      H      0.692560000000     0.692710000000     0.957020000000     0.0504412  
H87      H      0.628600000000     0.756310000000     0.967990000000     0.0505557  
H88      H      0.560870000000     0.654390000000     0.032940000000     0.0501115  
H89      H      0.897380000000     0.616900000000     0.898690000000     0.0514487  
H90      H      0.925270000000     0.651930000000     0.992920000000     0.0506295  
H91      H      0.989090000000     0.713390000000     0.977790000000     0.0493639  
H92      H      0.961010000000     0.678440000000     0.883570000000     0.0502239  
H93      H      0.656810000000     0.415850000000     0.931230000000     0.0597185  
H94      H      0.787340000000     0.438360000000     0.375110000000     0.050183   
H95      H      0.747320000000     0.390690000000     0.334060000000     0.0439418  
H96      H      0.616570000000     0.369580000000     0.890030000000     0.0529377  
H97      H      0.151550000000     0.508880000000     0.237650000000     0.0505509  
H98      H      0.203820000000     0.512690000000     0.144920000000     0.0512792  
H99      H      0.140890000000     0.449610000000     0.130970000000     0.0502283  
H100     H      0.088390000000     0.446120000000     0.223660000000     0.0499982  
H101     H      0.208040000000     0.133120000000     0.154660000000     0.0505442  
H102     H      0.153710000000     0.144130000000     0.062640000000     0.0506495  
H103     H      0.089960000000     0.204780000000     0.079050000000     0.0516485  
H104     H      0.144270000000     0.194040000000     0.171080000000     0.0498147  
H105     H      0.874680000000     0.202420000000     0.186350000000     0.0554674  
H106     H      0.948970000000     0.285670000000     0.257610000000     0.0483436  
H107     H      0.899040000000     0.241160000000     0.295570000000     0.0537902  
H108     H      0.826890000000     0.155550000000     0.224470000000     0.0471694  
H109     H      0.886240000000     0.453590000000     0.119270000000     0.0577693  
H110     H      0.931410000000     0.342460000000     0.052460000000     0.0458048  
H111     H      0.881390000000     0.386000000000     0.014180000000     0.048067   
H112     H      0.838660000000     0.499120000000     0.080400000000     0.05174    
H113     H      0.146630000000     0.381970000000     0.939160000000     0.0506268  
H114     H      0.052760000000     0.492720000000     0.894350000000     0.0500257  
H115     H      0.115090000000     0.558810000000     0.904290000000     0.0506739  
H116     H      0.208370000000     0.447910000000     0.949430000000     0.0507425  
H117     H      0.078660000000     0.142480000000     0.901840000000     0.0503344  
H118     H      0.115280000000     0.224610000000     0.319910000000     0.0513471  
H119     H      0.180830000000     0.162880000000     0.308630000000     0.0507331  
H120     H      0.144400000000     0.080270000000     0.890430000000     0.0504305  
H121     H      0.930850000000     0.308540000000     0.994390000000     0.0461893  
H122     H      0.864600000000     0.199850000000     0.933070000000     0.054439   
H123     H      0.819120000000     0.161430000000     0.975420000000     0.050443   
H124     H      0.886490000000     0.269010000000     0.036890000000     0.048869   
H125     H      0.975940000000     0.367040000000     0.282010000000     0.0524222  
H126     H      0.843900000000     0.385840000000     0.837270000000     0.0447011  
H127     H      0.803560000000     0.432880000000     0.295880000000     0.0496077  
H128     H      0.935500000000     0.412700000000     0.240640000000     0.0594498  
H129     H      0.162050000000     0.835940000000     0.744170000000     0.0456821  
H130     H      0.222620000000     0.947500000000     0.682430000000     0.0536303  
H131     H      0.268070000000     0.987090000000     0.724280000000     0.050921   
H132     H      0.206610000000     0.876430000000     0.786220000000     0.0485679  
H133     H      0.177490000000     0.834760000000     0.498130000000     0.0492892  
H134     H      0.194060000000     0.958640000000     0.434650000000     0.0557451  
H135     H      0.242120000000     0.006080000000     0.472270000000     0.0504274  
H136     H      0.226180000000     0.881670000000     0.535630000000     0.051541   
H137     H      0.484620000000     0.876360000000     0.653550000000     0.0525626  
H138     H      0.349860000000     0.880120000000     0.707590000000     0.0513632  
H139     H      0.308890000000     0.930900000000     0.668480000000     0.0459101  
H140     H      0.443170000000     0.926650000000     0.614250000000     0.0558175  
H141     H      0.360600000000     0.940990000000     0.486080000000     0.0558839  
H142     H      0.439490000000     0.842130000000     0.423960000000     0.0507943  
H143     H      0.398370000000     0.883940000000     0.381230000000     0.047547   
H144     H      0.319270000000     0.982390000000     0.443210000000     0.0481587  
H145     H      0.248770000000     0.641450000000     0.826270000000     0.0515344  
H146     H      0.210050000000     0.758930000000     0.761920000000     0.0481448  
H147     H      0.160460000000     0.801910000000     0.800780000000     0.0456632  
H148     H      0.201330000000     0.685980000000     0.365630000000     0.0581712  
H149     H      0.343380000000     0.752810000000     0.579780000000     0.0441188  
H150     H      0.468630000000     0.782750000000     0.638730000000     0.0518534  
H151     H      0.428000000000     0.735350000000     0.679360000000     0.0588667  
H152     H      0.302840000000     0.704420000000     0.620360000000     0.0505956  
H153     H      0.282740000000     0.728020000000     0.540190000000     0.0493029  
H154     H      0.140540000000     0.718600000000     0.494350000000     0.0587441  
H155     H      0.100830000000     0.764110000000     0.536070000000     0.0535302  
H156     H      0.242780000000     0.773750000000     0.582280000000     0.0462645  
H157     H      0.340760000000     0.632430000000     0.840130000000     0.0530701  
H158     H      0.338870000000     0.775200000000     0.388780000000     0.0491255  
H159     H      0.387500000000     0.814510000000     0.348000000000     0.049409   
H160     H      0.388980000000     0.671860000000     0.799460000000     0.0602352  
H161     H      0.393430000000     0.448660000000     0.708130000000     0.0504321  
H162     H      0.464930000000     0.557120000000     0.767520000000     0.0501786  
H163     H      0.529820000000     0.494260000000     0.779250000000     0.0501991  
H164     H      0.457620000000     0.385850000000     0.720150000000     0.0503584  
H165     H      0.455260000000     0.244330000000     0.841520000000     0.0509516  
H166     H      0.525380000000     0.140890000000     0.778210000000     0.0502177  
H167     H      0.460110000000     0.077790000000     0.788380000000     0.0511622  
H168     H      0.390500000000     0.181520000000     0.851720000000     0.0508658  
H169     H      0.436450000000     0.449430000000     0.529640000000     0.0505441  
H170     H      0.515270000000     0.489720000000     0.447520000000     0.0497524  
H171     H      0.449790000000     0.551520000000     0.435290000000     0.0504367  
H172     H      0.371220000000     0.511120000000     0.517470000000     0.0510403  
H173     H      0.482880000000     0.247040000000     0.582370000000     0.0511515  
H174     H      0.493470000000     0.181250000000     0.492770000000     0.0499501  
H175     H      0.433380000000     0.115660000000     0.507290000000     0.0507088  
H176     H      0.422360000000     0.181800000000     0.596780000000     0.0505652  
H177     H      0.923980000000     0.985280000000     0.812080000000     0.0505484  
H178     H      0.884680000000     0.009170000000     0.406100000000     0.0508842  
H179     H      0.949020000000     0.948130000000     0.421400000000     0.0498292  
H180     H      0.988340000000     0.924530000000     0.827370000000     0.0517287  
H181     H      0.661230000000     0.965990000000     0.349920000000     0.050505   
H182     H      0.656450000000     0.030940000000     0.759940000000     0.0502924  
H183     H      0.594830000000     0.967350000000     0.744860000000     0.0500226  
H184     H      0.599250000000     0.902540000000     0.334890000000     0.0507393  
H185     H      0.734410000000     0.260500000000     0.462120000000     0.0517603  
H186     H      0.607200000000     0.276810000000     0.402600000000     0.0526986  
H187     H      0.649520000000     0.224860000000     0.864340000000     0.0553497  
H188     H      0.775630000000     0.207180000000     0.424330000000     0.0445553  
H189     H      0.923080000000     0.999360000000     0.557010000000     0.0503379  
H190     H      0.936250000000     0.060950000000     0.647500000000     0.0507916  
H191     H      0.000570000000     0.997580000000     0.659220000000     0.0504132  
H192     H      0.987660000000     0.936620000000     0.568560000000     0.0514773  
H193     H      0.622960000000     0.075090000000     0.547030000000     0.0506513  
H194     H      0.710360000000     0.959340000000     0.592200000000     0.0511349  
H195     H      0.645710000000     0.896860000000     0.581850000000     0.0510627  
H196     H      0.557540000000     0.011970000000     0.536670000000     0.0503764  
H197     H      0.752840000000     0.148800000000     0.694130000000     0.0493967  
H198     H      0.716000000000     0.276710000000     0.637020000000     0.0443705  
H199     H      0.674650000000     0.318480000000     0.679950000000     0.0497536  
H200     H      0.713130000000     0.190910000000     0.737250000000     0.0586828  
H201     H      0.712800000000     0.637840000000     0.768800000000     0.0511205  
H202     H      0.635120000000     0.598640000000     0.686200000000     0.050492   
H203     H      0.569890000000     0.660730000000     0.698360000000     0.0499986  
H204     H      0.647720000000     0.699830000000     0.780920000000     0.050439   
H205     H      0.973460000000     0.587530000000     0.660430000000     0.0504919  
H206     H      0.873930000000     0.701620000000     0.697150000000     0.0506983  
H207     H      0.935950000000     0.767270000000     0.686880000000     0.050649   
H208     H      0.036130000000     0.653430000000     0.650540000000     0.0503636  
H209     H      0.747610000000     0.514950000000     0.590150000000     0.0540885  
H210     H      0.735000000000     0.376570000000     0.642490000000     0.0456006  
H211     H      0.686040000000     0.338050000000     0.601700000000     0.0495036  
H212     H      0.699790000000     0.475930000000     0.549120000000     0.0618007  
H213     H      0.625560000000     0.590730000000     0.522230000000     0.0499822  
H214     H      0.692560000000     0.692710000000     0.457010000000     0.0503914  
H215     H      0.628600000000     0.756310000000     0.467990000000     0.0506069  
H216     H      0.560870000000     0.654390000000     0.532940000000     0.0501679  
H217     H      0.897380000000     0.616900000000     0.398690000000     0.0514793  
H218     H      0.925270000000     0.651940000000     0.492920000000     0.0505626  
H219     H      0.989090000000     0.713390000000     0.477790000000     0.0493057  
H220     H      0.961010000000     0.678440000000     0.383570000000     0.0502124  
H221     H      0.656810000000     0.415850000000     0.431230000000     0.0596762  
H222     H      0.787340000000     0.438360000000     0.875110000000     0.050189   
H223     H      0.747320000000     0.390690000000     0.834050000000     0.0439361  
H224     H      0.616570000000     0.369580000000     0.390030000000     0.0529463  
H225     H      0.151550000000     0.508880000000     0.737650000000     0.0505631  
H226     H      0.203820000000     0.512680000000     0.644920000000     0.0513032  
H227     H      0.140890000000     0.449600000000     0.630970000000     0.0502544  
H228     H      0.088390000000     0.446120000000     0.723660000000     0.0499644  
H229     H      0.208040000000     0.133120000000     0.654660000000     0.0505458  
H230     H      0.153710000000     0.144130000000     0.562640000000     0.0506896  
H231     H      0.089960000000     0.204780000000     0.579050000000     0.0517049  
H232     H      0.144280000000     0.194040000000     0.671080000000     0.0497943  
H233     H      0.874680000000     0.202430000000     0.686350000000     0.0554618  
H234     H      0.948980000000     0.285670000000     0.757610000000     0.0483308  
H235     H      0.899040000000     0.241150000000     0.795570000000     0.053806   
H236     H      0.826890000000     0.155550000000     0.724470000000     0.0471708  
H237     H      0.886230000000     0.453590000000     0.619270000000     0.0577756  
H238     H      0.931410000000     0.342460000000     0.552460000000     0.0458657  
H239     H      0.881390000000     0.386000000000     0.514180000000     0.0481802  
H240     H      0.838660000000     0.499120000000     0.580400000000     0.0517494  
H241     H      0.146630000000     0.381970000000     0.439160000000     0.0505888  
H242     H      0.052760000000     0.492720000000     0.394360000000     0.0500384  
H243     H      0.115080000000     0.558810000000     0.404290000000     0.0506578  
H244     H      0.208370000000     0.447910000000     0.449430000000     0.0507025  
H245     H      0.078650000000     0.142470000000     0.401840000000     0.0503148  
H246     H      0.115280000000     0.224610000000     0.819910000000     0.0514032  
H247     H      0.180820000000     0.162880000000     0.808620000000     0.0506989  
H248     H      0.144390000000     0.080270000000     0.390420000000     0.0504127  
H249     H      0.930860000000     0.308540000000     0.494390000000     0.0461814  
H250     H      0.864590000000     0.199850000000     0.433070000000     0.054417   
H251     H      0.819120000000     0.161430000000     0.475420000000     0.0504199  
H252     H      0.886490000000     0.269010000000     0.536880000000     0.0488041  
H253     H      0.975940000000     0.367040000000     0.782010000000     0.0524105  
H254     H      0.843910000000     0.385840000000     0.337270000000     0.0446963  
H255     H      0.803570000000     0.432880000000     0.795880000000     0.0495881  
H256     H      0.935500000000     0.412700000000     0.740640000000     0.0594575  
N1       N      0.188760000000     0.888790000000     0.210130000000    -0.16041    
N2       N      0.239970000000     0.935270000000     0.258540000000    -0.160536   
N3       N      0.181330000000     0.893420000000     0.963790000000    -0.161353   
N4       N      0.237380000000     0.947690000000     0.006890000000    -0.161981   
N5       N      0.420600000000     0.875010000000     0.183730000000    -0.161813   
N6       N      0.373180000000     0.933510000000     0.138740000000    -0.161477   
N7       N      0.403810000000     0.888940000000     0.958270000000    -0.159867   
N8       N      0.355600000000     0.936240000000     0.908960000000    -0.161317   
N9       N      0.233340000000     0.697040000000     0.291180000000    -0.161907   
N10      N      0.177390000000     0.747400000000     0.336170000000    -0.160567   
N11      N      0.409280000000     0.770920000000     0.106060000000    -0.162532   
N12      N      0.362870000000     0.715270000000     0.152710000000    -0.160026   
N13      N      0.214570000000     0.719210000000     0.014320000000    -0.160947   
N14      N      0.168670000000     0.771760000000     0.062580000000    -0.161979   
N15      N      0.336950000000     0.700580000000     0.867820000000    -0.1625     
N16      N      0.393190000000     0.745800000000     0.321150000000    -0.16057    
N17      N      0.423810000000     0.507380000000     0.237350000000    -0.161508   
N18      N      0.498170000000     0.435010000000     0.250960000000    -0.161672   
N19      N      0.494770000000     0.197710000000     0.308710000000    -0.161251   
N20      N      0.419900000000     0.125190000000     0.320420000000    -0.161045   
N21      N      0.480240000000     0.464090000000     0.989140000000    -0.16154    
N22      N      0.405010000000     0.535230000000     0.975150000000    -0.160874   
N23      N      0.492130000000     0.219580000000     0.036330000000    -0.161146   
N24      N      0.422690000000     0.144270000000     0.052960000000    -0.161489   
N25      N      0.899180000000     0.001590000000     0.357920000000    -0.161085   
N26      N      0.973360000000     0.931430000000     0.875540000000    -0.16106    
N27      N      0.664200000000     0.002710000000     0.305910000000    -0.16113    
N28      N      0.593000000000     0.929580000000     0.288590000000    -0.16115    
N29      N      0.667460000000     0.272380000000     0.935340000000    -0.161503   
N30      N      0.715560000000     0.211490000000     0.891660000000    -0.161621   
N31      N      0.923880000000     0.034080000000     0.101640000000    -0.161127   
N32      N      0.998070000000     0.961500000000     0.115010000000    -0.161151   
N33      N      0.671930000000     0.021850000000     0.070000000000    -0.161175   
N34      N      0.596990000000     0.949490000000     0.058100000000    -0.161477   
N35      N      0.737170000000     0.209490000000     0.162230000000    -0.161532   
N36      N      0.690010000000     0.257510000000     0.211770000000    -0.159301   
N37      N      0.679440000000     0.614330000000     0.226280000000    -0.160827   
N38      N      0.604450000000     0.685790000000     0.240200000000    -0.161703   
N39      N      0.918760000000     0.639630000000     0.179250000000    -0.161321   
N40      N      0.990600000000     0.715420000000     0.167700000000    -0.161542   
N41      N      0.744520000000     0.448870000000     0.119570000000    -0.162637   
N42      N      0.688570000000     0.404330000000     0.072570000000    -0.160246   
N43      N      0.664470000000     0.637250000000     0.989220000000    -0.161241   
N44      N      0.590350000000     0.710530000000     0.001660000000    -0.161513   
N45      N      0.905990000000     0.630280000000     0.946930000000    -0.160876   
N46      N      0.979370000000     0.701100000000     0.929530000000    -0.161609   
N47      N      0.724760000000     0.431470000000     0.906090000000    -0.159777   
N48      N      0.678820000000     0.376920000000     0.358820000000    -0.162379   
N49      N      0.182980000000     0.514940000000     0.192430000000    -0.160934   
N50      N      0.110400000000     0.442490000000     0.176370000000    -0.161557   
N51      N      0.186170000000     0.134560000000     0.107340000000    -0.16123    
N52      N      0.112720000000     0.204570000000     0.126230000000    -0.161233   
N53      N      0.915270000000     0.247900000000     0.219120000000    -0.161363   
N54      N      0.858930000000     0.195110000000     0.262850000000    -0.161554   
N55      N      0.912260000000     0.394410000000     0.088810000000    -0.160586   
N56      N      0.855920000000     0.445710000000     0.044420000000    -0.161799   
N57      N      0.095180000000     0.432250000000     0.915770000000    -0.161818   
N58      N      0.166660000000     0.508280000000     0.927350000000    -0.161216   
N59      N      0.092710000000     0.188860000000     0.862080000000    -0.161052   
N60      N      0.168330000000     0.117490000000     0.349020000000    -0.160857   
N61      N      0.901270000000     0.257030000000     0.960500000000    -0.160107   
N62      N      0.849990000000     0.211910000000     0.009460000000    -0.16053    
N63      N      0.913080000000     0.373260000000     0.312890000000    -0.161969   
N64      N      0.866730000000     0.426990000000     0.265290000000    -0.160141   
N65      N      0.188760000000     0.888790000000     0.710130000000    -0.160454   
N66      N      0.239980000000     0.935270000000     0.758540000000    -0.160554   
N67      N      0.181330000000     0.893420000000     0.463790000000    -0.161313   
N68      N      0.237380000000     0.947680000000     0.506890000000    -0.161826   
N69      N      0.420600000000     0.875010000000     0.683730000000    -0.161842   
N70      N      0.373190000000     0.933510000000     0.638740000000    -0.161433   
N71      N      0.403810000000     0.888940000000     0.458270000000    -0.159808   
N72      N      0.355600000000     0.936240000000     0.408960000000    -0.161352   
N73      N      0.233350000000     0.697040000000     0.791170000000    -0.161966   
N74      N      0.177390000000     0.747410000000     0.836160000000    -0.160623   
N75      N      0.409280000000     0.770920000000     0.606060000000    -0.162489   
N76      N      0.362870000000     0.715280000000     0.652710000000    -0.160018   
N77      N      0.214570000000     0.719210000000     0.514320000000    -0.160877   
N78      N      0.168670000000     0.771760000000     0.562580000000    -0.161939   
N79      N      0.336950000000     0.700590000000     0.367820000000    -0.162483   
N80      N      0.393200000000     0.745790000000     0.821150000000    -0.160588   
N81      N      0.423820000000     0.507380000000     0.737340000000    -0.161487   
N82      N      0.498170000000     0.435010000000     0.750960000000    -0.16167    
N83      N      0.494770000000     0.197710000000     0.808710000000    -0.161269   
N84      N      0.419900000000     0.125200000000     0.820420000000    -0.16103    
N85      N      0.480240000000     0.464090000000     0.489140000000    -0.16168    
N86      N      0.405010000000     0.535230000000     0.475150000000    -0.161018   
N87      N      0.492130000000     0.219580000000     0.536330000000    -0.161225   
N88      N      0.422690000000     0.144270000000     0.552960000000    -0.161432   
N89      N      0.899180000000     0.001590000000     0.857920000000    -0.161085   
N90      N      0.973360000000     0.931430000000     0.375540000000    -0.16105    
N91      N      0.664200000000     0.002710000000     0.805910000000    -0.161183   
N92      N      0.593000000000     0.929570000000     0.788590000000    -0.161196   
N93      N      0.667460000000     0.272390000000     0.435340000000    -0.161521   
N94      N      0.715560000000     0.211490000000     0.391660000000    -0.161649   
N95      N      0.923890000000     0.034080000000     0.601640000000    -0.161109   
N96      N      0.998070000000     0.961500000000     0.615010000000    -0.161126   
N97      N      0.671930000000     0.021850000000     0.570000000000    -0.161188   
N98      N      0.597000000000     0.949490000000     0.558100000000    -0.161461   
N99      N      0.737170000000     0.209490000000     0.662230000000    -0.16153    
N100     N      0.690010000000     0.257510000000     0.711770000000    -0.159309   
N101     N      0.679450000000     0.614320000000     0.726280000000    -0.160909   
N102     N      0.604450000000     0.685790000000     0.740200000000    -0.161711   
N103     N      0.918760000000     0.639630000000     0.679250000000    -0.161286   
N104     N      0.990610000000     0.715420000000     0.667700000000    -0.161558   
N105     N      0.744520000000     0.448880000000     0.619570000000    -0.162631   
N106     N      0.688560000000     0.404320000000     0.572570000000    -0.160267   
N107     N      0.664470000000     0.637240000000     0.489230000000    -0.161469   
N108     N      0.590350000000     0.710530000000     0.501660000000    -0.161334   
N109     N      0.905990000000     0.630280000000     0.446930000000    -0.16085    
N110     N      0.979370000000     0.701110000000     0.429530000000    -0.161635   
N111     N      0.724760000000     0.431460000000     0.406090000000    -0.159787   
N112     N      0.678820000000     0.376920000000     0.858820000000    -0.162425   
N113     N      0.182980000000     0.514940000000     0.692430000000    -0.160925   
N114     N      0.110400000000     0.442490000000     0.676370000000    -0.161591   
N115     N      0.186170000000     0.134550000000     0.607340000000    -0.161273   
N116     N      0.112720000000     0.204560000000     0.626240000000    -0.161237   
N117     N      0.915270000000     0.247900000000     0.719120000000    -0.161423   
N118     N      0.858930000000     0.195110000000     0.762850000000    -0.161538   
N119     N      0.912270000000     0.394420000000     0.588810000000    -0.160545   
N120     N      0.855920000000     0.445700000000     0.544420000000    -0.161841   
N121     N      0.095180000000     0.432240000000     0.415770000000    -0.161811   
N122     N      0.166660000000     0.508280000000     0.427350000000    -0.161236   
N123     N      0.092710000000     0.188850000000     0.362070000000    -0.161097   
N124     N      0.168330000000     0.117490000000     0.849020000000    -0.160881   
N125     N      0.901270000000     0.257030000000     0.460500000000    -0.160073   
N126     N      0.849990000000     0.211910000000     0.509460000000    -0.160431   
N127     N      0.913080000000     0.373260000000     0.812890000000    -0.162007   
N128     N      0.866720000000     0.426990000000     0.765290000000    -0.160163   
O1       O      0.052900000000     0.266390000000     0.353410000000    -0.240352   
O2       O      0.960490000000     0.313170000000     0.940850000000    -0.242699   
O3       O      0.982380000000     0.333720000000     0.334390000000    -0.241567   
O4       O      0.070430000000     0.347310000000     0.914450000000    -0.245701   
O5       O      0.020870000000     0.403240000000     0.894360000000    -0.245127   
O6       O      0.918280000000     0.347380000000     0.863500000000    -0.240676   
O7       O      0.034250000000     0.225760000000     0.894680000000    -0.242282   
O8       O      0.927780000000     0.257790000000     0.910020000000    -0.237788   
O9       O      0.967890000000     0.330810000000     0.103450000000    -0.237721   
O10      O      0.046800000000     0.385350000000     0.188390000000    -0.240147   
O11      O      0.048220000000     0.261940000000     0.116360000000    -0.23778    
O12      O      0.941400000000     0.262500000000     0.169420000000    -0.244044   
O13      O      0.976820000000     0.306060000000     0.205310000000    -0.243195   
O14      O      0.075990000000     0.257280000000     0.162520000000    -0.247342   
O15      O      0.946270000000     0.386830000000     0.137310000000    -0.241867   
O16      O      0.074870000000     0.385610000000     0.142120000000    -0.247365   
O17      O      0.806810000000     0.513540000000     0.027630000000    -0.24706    
O18      O      0.842250000000     0.572760000000     0.935910000000    -0.235885   
O19      O      0.706350000000     0.560900000000     0.999100000000    -0.242424   
O20      O      0.722410000000     0.471640000000     0.953220000000    -0.240005   
O21      O      0.787590000000     0.484240000000     0.924730000000    -0.235219   
O22      O      0.737250000000     0.611190000000     0.964800000000    -0.248155   
O23      O      0.831660000000     0.458150000000     0.994270000000    -0.245798   
O24      O      0.855640000000     0.591390000000     0.983260000000    -0.244272   
O25      O      0.802680000000     0.477630000000     0.245700000000    -0.239171   
O26      O      0.888730000000     0.556290000000     0.176570000000    -0.241982   
O27      O      0.758290000000     0.578720000000     0.234180000000    -0.236103   
O28      O      0.771730000000     0.450780000000     0.169780000000    -0.244282   
O29      O      0.783860000000     0.518210000000     0.142220000000    -0.246832   
O30      O      0.719250000000     0.559430000000     0.192510000000    -0.243315   
O31      O      0.869420000000     0.467460000000     0.218300000000    -0.24026    
O32      O      0.841320000000     0.613460000000     0.197420000000    -0.245815   
O33      O      0.707900000000     0.102620000000     0.065760000000    -0.240773   
O34      O      0.777390000000     0.140140000000     0.140050000000    -0.242932   
O35      O      0.800430000000     0.147920000000     0.030350000000    -0.240784   
O36      O      0.858630000000     0.063080000000     0.071370000000    -0.243438   
O37      O      0.867710000000     0.098030000000     0.115660000000    -0.238672   
O38      O      0.838850000000     0.198780000000     0.061400000000    -0.240957   
O39      O      0.750490000000     0.043360000000     0.088310000000    -0.245557   
O40      O      0.754780000000     0.202130000000     0.110470000000    -0.240657   
O41      O      0.779620000000     0.156610000000     0.876950000000    -0.240258   
O42      O      0.718530000000     0.069630000000     0.295110000000    -0.239001   
O43      O      0.834060000000     0.058180000000     0.868370000000    -0.238834   
O44      O      0.839670000000     0.174290000000     0.312870000000    -0.243487   
O45      O      0.801900000000     0.132530000000     0.277060000000    -0.241212   
O46      O      0.853140000000     0.044680000000     0.321160000000    -0.247104   
O47      O      0.717300000000     0.166840000000     0.345960000000    -0.24315    
O48      O      0.722230000000     0.035670000000     0.340000000000    -0.246322   
O49      O      0.598150000000     0.316470000000     0.953840000000    -0.243183   
O50      O      0.537350000000     0.293740000000     0.045780000000    -0.237245   
O51      O      0.552150000000     0.417560000000     0.977330000000    -0.24346    
O52      O      0.644560000000     0.409000000000     0.027020000000    -0.240566   
O53      O      0.637460000000     0.339890000000     0.053840000000    -0.238072   
O54      O      0.511150000000     0.397040000000     0.018040000000    -0.247836   
O55      O      0.660580000000     0.304030000000     0.984520000000    -0.242821   
O56      O      0.539340000000     0.262640000000     0.000170000000    -0.245195   
O57      O      0.637300000000     0.319740000000     0.232000000000    -0.240638   
O58      O      0.563860000000     0.227640000000     0.281820000000    -0.240598   
O59      O      0.528150000000     0.351690000000     0.250790000000    -0.24474    
O60      O      0.673000000000     0.352920000000     0.307970000000    -0.243169   
O61      O      0.610220000000     0.336130000000     0.337470000000    -0.247284   
O62      O      0.567520000000     0.407070000000     0.278300000000    -0.244623   
O63      O      0.658890000000     0.256670000000     0.261230000000    -0.235294   
O64      O      0.526930000000     0.279710000000     0.312750000000    -0.242736   
O65      O      0.282130000000     0.676690000000     0.992240000000    -0.239934   
O66      O      0.197850000000     0.590930000000     0.922910000000    -0.241234   
O67      O      0.325880000000     0.570280000000     0.982910000000    -0.237469   
O68      O      0.307260000000     0.699520000000     0.917580000000    -0.243535   
O69      O      0.302010000000     0.629710000000     0.891350000000    -0.246654   
O70      O      0.365170000000     0.590020000000     0.941390000000    -0.243464   
O71      O      0.210570000000     0.673510000000     0.969140000000    -0.240433   
O72      O      0.242140000000     0.535610000000     0.947720000000    -0.24527    
O73      O      0.383270000000     0.585190000000     0.244900000000    -0.242214   
O74      O      0.301490000000     0.659840000000     0.170460000000    -0.236952   
O75      O      0.281570000000     0.629110000000     0.273600000000    -0.245663   
O76      O      0.227390000000     0.561210000000     0.228450000000    -0.244476   
O77      O      0.252320000000     0.565500000000     0.181560000000    -0.235843   
O78      O      0.258030000000     0.686280000000     0.240930000000    -0.245091   
O79      O      0.350210000000     0.531650000000     0.213290000000    -0.247825   
O80      O      0.364770000000     0.675360000000     0.199880000000    -0.240524   
O81      O      0.463890000000     0.834020000000     0.978210000000    -0.241206   
O82      O      0.522380000000     0.922990000000     0.035670000000    -0.242129   
O83      O      0.560110000000     0.793630000000     0.999040000000    -0.241007   
O84      O      0.418160000000     0.792330000000     0.054990000000    -0.242621   
O85      O      0.477140000000     0.814860000000     0.085970000000    -0.249038   
O86      O      0.522700000000     0.741290000000     0.029620000000    -0.243835   
O87      O      0.426040000000     0.885420000000     0.009410000000    -0.236421   
O88      O      0.568910000000     0.865810000000     0.057120000000    -0.244812   
O89      O      0.490620000000     0.835340000000     0.204470000000    -0.242364   
O90      O      0.546050000000     0.856230000000     0.297350000000    -0.238252   
O91      O      0.533270000000     0.733060000000     0.228020000000    -0.243097   
O92      O      0.442060000000     0.740310000000     0.277500000000    -0.241129   
O93      O      0.442660000000     0.811730000000     0.302470000000    -0.238327   
O94      O      0.573220000000     0.752620000000     0.269230000000    -0.247352   
O95      O      0.424520000000     0.842730000000     0.232880000000    -0.242945   
O96      O      0.546370000000     0.887540000000     0.251790000000    -0.244712   
O97      O      0.278880000000     0.020470000000     0.023380000000    -0.240167   
O98      O      0.256360000000     0.083770000000     0.115930000000    -0.239463   
O99      O      0.371670000000     0.074750000000     0.042040000000    -0.240416   
O100     O      0.374130000000     0.980990000000     0.094070000000    -0.241787   
O101     O      0.307040000000     0.983870000000     0.121960000000    -0.239457   
O102     O      0.364010000000     0.110290000000     0.086280000000    -0.246823   
O103     O      0.266580000000     0.959870000000     0.056110000000    -0.242645   
O104     O      0.229570000000     0.090730000000     0.069680000000    -0.245966   
O105     O      0.304480000000     0.999320000000     0.888400000000    -0.242009   
O106     O      0.378830000000     0.048460000000     0.310900000000    -0.23887    
O107     O      0.219030000000     0.048140000000     0.861580000000    -0.238212   
O108     O      0.252800000000     0.948130000000     0.310340000000    -0.242804   
O109     O      0.287260000000     0.001310000000     0.278970000000    -0.240328   
O110     O      0.238200000000     0.091990000000     0.321440000000    -0.24361    
O111     O      0.346180000000     0.951470000000     0.357110000000    -0.242744   
O112     O      0.344970000000     0.100970000000     0.342950000000    -0.2452     
O113     O      0.036170000000     0.872550000000     0.364640000000    -0.237662   
O114     O      0.130210000000     0.825580000000     0.949870000000    -0.241875   
O115     O      0.122760000000     0.811370000000     0.351780000000    -0.238029   
O116     O      0.021870000000     0.748000000000     0.892910000000    -0.24702    
O117     O      0.037160000000     0.765000000000     0.940240000000    -0.241317   
O118     O      0.142990000000     0.753210000000     0.884640000000    -0.240675   
O119     O      0.015640000000     0.883460000000     0.911890000000    -0.246375   
O120     O      0.139480000000     0.887410000000     0.917630000000    -0.244345   
O121     O      0.014090000000     0.800490000000     0.163740000000    -0.245542   
O122     O      0.098020000000     0.803160000000     0.087060000000    -0.239691   
O123     O      0.130100000000     0.831470000000     0.191140000000    -0.243137   
O124     O      0.047110000000     0.916540000000     0.149500000000    -0.24281    
O125     O      0.043340000000     0.888170000000     0.103390000000    -0.240619   
O126     O      0.159660000000     0.888620000000     0.160260000000    -0.238872   
O127     O      0.067030000000     0.743400000000     0.148470000000    -0.243934   
O128     O      0.168310000000     0.805620000000     0.111620000000    -0.240469   
O129     O      0.052900000000     0.266400000000     0.853410000000    -0.240305   
O130     O      0.960490000000     0.313170000000     0.440850000000    -0.242728   
O131     O      0.982380000000     0.333720000000     0.834390000000    -0.241485   
O132     O      0.070430000000     0.347300000000     0.414450000000    -0.245715   
O133     O      0.020870000000     0.403240000000     0.394360000000    -0.245117   
O134     O      0.918280000000     0.347380000000     0.363500000000    -0.240778   
O135     O      0.034250000000     0.225760000000     0.394670000000    -0.242464   
O136     O      0.927770000000     0.257790000000     0.410020000000    -0.237776   
O137     O      0.967890000000     0.330810000000     0.603450000000    -0.237697   
O138     O      0.046800000000     0.385350000000     0.688390000000    -0.24015    
O139     O      0.048220000000     0.261940000000     0.616360000000    -0.23771    
O140     O      0.941400000000     0.262500000000     0.669420000000    -0.243925   
O141     O      0.976820000000     0.306060000000     0.705310000000    -0.243153   
O142     O      0.075990000000     0.257280000000     0.662520000000    -0.247318   
O143     O      0.946280000000     0.386830000000     0.637310000000    -0.24197    
O144     O      0.074870000000     0.385610000000     0.642120000000    -0.247348   
O145     O      0.806810000000     0.513540000000     0.527630000000    -0.246925   
O146     O      0.842250000000     0.572760000000     0.435910000000    -0.235892   
O147     O      0.706360000000     0.560900000000     0.499100000000    -0.242633   
O148     O      0.722410000000     0.471640000000     0.453220000000    -0.240028   
O149     O      0.787590000000     0.484240000000     0.424730000000    -0.235186   
O150     O      0.737250000000     0.611190000000     0.464800000000    -0.248168   
O151     O      0.831660000000     0.458150000000     0.494270000000    -0.24616    
O152     O      0.855640000000     0.591390000000     0.483260000000    -0.244358   
O153     O      0.802680000000     0.477630000000     0.745690000000    -0.239201   
O154     O      0.888730000000     0.556280000000     0.676570000000    -0.241904   
O155     O      0.758290000000     0.578720000000     0.734180000000    -0.236124   
O156     O      0.771740000000     0.450770000000     0.669780000000    -0.244213   
O157     O      0.783870000000     0.518210000000     0.642220000000    -0.24685    
O158     O      0.719250000000     0.559430000000     0.692510000000    -0.243332   
O159     O      0.869420000000     0.467460000000     0.718300000000    -0.240276   
O160     O      0.841320000000     0.613460000000     0.697420000000    -0.245789   
O161     O      0.707900000000     0.102620000000     0.565760000000    -0.240651   
O162     O      0.777380000000     0.140140000000     0.640050000000    -0.24299    
O163     O      0.800430000000     0.147920000000     0.530350000000    -0.240708   
O164     O      0.858640000000     0.063080000000     0.571370000000    -0.243431   
O165     O      0.867710000000     0.098030000000     0.615660000000    -0.238703   
O166     O      0.838850000000     0.198780000000     0.561390000000    -0.241071   
O167     O      0.750500000000     0.043360000000     0.588310000000    -0.245425   
O168     O      0.754780000000     0.202130000000     0.610470000000    -0.240663   
O169     O      0.779620000000     0.156620000000     0.376950000000    -0.240264   
O170     O      0.718530000000     0.069630000000     0.795110000000    -0.239006   
O171     O      0.834060000000     0.058180000000     0.368370000000    -0.238844   
O172     O      0.839670000000     0.174290000000     0.812870000000    -0.243491   
O173     O      0.801900000000     0.132530000000     0.777060000000    -0.241214   
O174     O      0.853140000000     0.044670000000     0.821160000000    -0.247117   
O175     O      0.717300000000     0.166840000000     0.845960000000    -0.243158   
O176     O      0.722230000000     0.035670000000     0.840000000000    -0.24631    
O177     O      0.598140000000     0.316470000000     0.453840000000    -0.243232   
O178     O      0.537350000000     0.293740000000     0.545780000000    -0.237288   
O179     O      0.552150000000     0.417560000000     0.477330000000    -0.243454   
O180     O      0.644560000000     0.409000000000     0.527020000000    -0.240481   
O181     O      0.637460000000     0.339890000000     0.553840000000    -0.238051   
O182     O      0.511150000000     0.397040000000     0.518040000000    -0.247546   
O183     O      0.660580000000     0.304040000000     0.484520000000    -0.242983   
O184     O      0.539340000000     0.262640000000     0.500170000000    -0.244937   
O185     O      0.637300000000     0.319740000000     0.732000000000    -0.240588   
O186     O      0.563870000000     0.227630000000     0.781820000000    -0.24052    
O187     O      0.528150000000     0.351690000000     0.750790000000    -0.244812   
O188     O      0.672990000000     0.352920000000     0.807970000000    -0.243229   
O189     O      0.610220000000     0.336130000000     0.837470000000    -0.247227   
O190     O      0.567520000000     0.407070000000     0.778300000000    -0.244625   
O191     O      0.658890000000     0.256660000000     0.761230000000    -0.235237   
O192     O      0.526930000000     0.279710000000     0.812750000000    -0.242716   
O193     O      0.282130000000     0.676690000000     0.492240000000    -0.239985   
O194     O      0.197840000000     0.590930000000     0.422920000000    -0.241277   
O195     O      0.325880000000     0.570280000000     0.482910000000    -0.237589   
O196     O      0.307260000000     0.699520000000     0.417580000000    -0.243556   
O197     O      0.302010000000     0.629710000000     0.391350000000    -0.246652   
O198     O      0.365170000000     0.590020000000     0.441390000000    -0.243515   
O199     O      0.210570000000     0.673510000000     0.469140000000    -0.240325   
O200     O      0.242140000000     0.535610000000     0.447720000000    -0.245306   
O201     O      0.383270000000     0.585180000000     0.744900000000    -0.24228    
O202     O      0.301490000000     0.659840000000     0.670460000000    -0.236941   
O203     O      0.281570000000     0.629110000000     0.773600000000    -0.245694   
O204     O      0.227390000000     0.561210000000     0.728450000000    -0.244489   
O205     O      0.252320000000     0.565490000000     0.681560000000    -0.235861   
O206     O      0.258030000000     0.686280000000     0.740930000000    -0.245119   
O207     O      0.350210000000     0.531650000000     0.713290000000    -0.247835   
O208     O      0.364770000000     0.675360000000     0.699880000000    -0.240513   
O209     O      0.463890000000     0.834020000000     0.478210000000    -0.241299   
O210     O      0.522390000000     0.922990000000     0.535670000000    -0.242136   
O211     O      0.560110000000     0.793630000000     0.499030000000    -0.24128    
O212     O      0.418170000000     0.792320000000     0.554990000000    -0.24271    
O213     O      0.477140000000     0.814860000000     0.585970000000    -0.24906    
O214     O      0.522700000000     0.741280000000     0.529620000000    -0.243827   
O215     O      0.426040000000     0.885420000000     0.509410000000    -0.236089   
O216     O      0.568920000000     0.865810000000     0.557120000000    -0.244774   
O217     O      0.490620000000     0.835340000000     0.704470000000    -0.242367   
O218     O      0.546050000000     0.856230000000     0.797350000000    -0.238275   
O219     O      0.533270000000     0.733050000000     0.728020000000    -0.243084   
O220     O      0.442060000000     0.740310000000     0.777500000000    -0.241148   
O221     O      0.442660000000     0.811730000000     0.802470000000    -0.238262   
O222     O      0.573220000000     0.752620000000     0.769230000000    -0.247324   
O223     O      0.424520000000     0.842730000000     0.732880000000    -0.242935   
O224     O      0.546370000000     0.887540000000     0.751790000000    -0.244733   
O225     O      0.278880000000     0.020470000000     0.523380000000    -0.240118   
O226     O      0.256360000000     0.083760000000     0.615930000000    -0.239479   
O227     O      0.371670000000     0.074740000000     0.542040000000    -0.240297   
O228     O      0.374130000000     0.980990000000     0.594070000000    -0.241775   
O229     O      0.307040000000     0.983870000000     0.621960000000    -0.239451   
O230     O      0.364010000000     0.110290000000     0.586280000000    -0.246781   
O231     O      0.266580000000     0.959870000000     0.556110000000    -0.242627   
O232     O      0.229570000000     0.090730000000     0.569690000000    -0.246056   
O233     O      0.304480000000     0.999320000000     0.388390000000    -0.242055   
O234     O      0.378830000000     0.048460000000     0.810900000000    -0.238864   
O235     O      0.219030000000     0.048140000000     0.361580000000    -0.238216   
O236     O      0.252800000000     0.948140000000     0.810340000000    -0.242839   
O237     O      0.287260000000     0.001310000000     0.778970000000    -0.240339   
O238     O      0.238200000000     0.091980000000     0.821440000000    -0.243628   
O239     O      0.346180000000     0.951460000000     0.857110000000    -0.242718   
O240     O      0.344970000000     0.100970000000     0.842950000000    -0.245179   
O241     O      0.036170000000     0.872550000000     0.864640000000    -0.237657   
O242     O      0.130210000000     0.825580000000     0.449880000000    -0.241858   
O243     O      0.122760000000     0.811370000000     0.851780000000    -0.23802    
O244     O      0.021870000000     0.748010000000     0.392910000000    -0.246995   
O245     O      0.037160000000     0.765010000000     0.440240000000    -0.241304   
O246     O      0.142990000000     0.753210000000     0.384650000000    -0.240682   
O247     O      0.015640000000     0.883460000000     0.411890000000    -0.246406   
O248     O      0.139470000000     0.887410000000     0.417630000000    -0.244345   
O249     O      0.014090000000     0.800490000000     0.663740000000    -0.245548   
O250     O      0.098020000000     0.803160000000     0.587060000000    -0.239651   
O251     O      0.130100000000     0.831470000000     0.691140000000    -0.243135   
O252     O      0.047110000000     0.916540000000     0.649500000000    -0.242879   
O253     O      0.043340000000     0.888170000000     0.603390000000    -0.240476   
O254     O      0.159660000000     0.888620000000     0.660270000000    -0.239006   
O255     O      0.067030000000     0.743400000000     0.648470000000    -0.243937   
O256     O      0.168310000000     0.805630000000     0.611620000000    -0.240446   


