data_structure

_audit_creation_method RASPA-1.0
_audit_creation_date 2023-5-23
_audit_author_name 'Poobodin Mano'

_cell_length_a    46.4067
_cell_length_b    45.5344
_cell_length_c    41.5216
_cell_angle_alpha 90.0053
_cell_angle_beta  90.0018
_cell_angle_gamma 103.03
_cell_volume      85480.2

_symmetry_cell_setting          triclinic
_symmetry_space_group_name_Hall 'P 1'
_symmetry_space_group_name_H-M  'P 1'
_symmetry_Int_Tables_number     1

_symmetry_equiv_pos_as_xyz 'x,y,z'

loop_
_atom_site_label
_atom_site_type_symbol
_atom_site_fract_x
_atom_site_fract_y
_atom_site_fract_z
_atom_site_charge
C1       C      0.165580000000     0.354600000000     0.356420000000     0.345194   
C2       C      0.217550000000     0.324830000000     0.449060000000     0.3468     
C3       C      0.205420000000     0.415080000000     0.446260000000     0.344875   
C4       C      0.118400000000     0.319780000000     0.447780000000     0.344764   
C5       C      0.380900000000     0.144790000000     0.620200000000     0.345267   
C6       C      0.346080000000     0.196860000000     0.527920000000     0.347032   
C7       C      0.435530000000     0.186830000000     0.530000000000     0.344827   
C8       C      0.341050000000     0.097690000000     0.529720000000     0.34461    
C9       C      0.387700000000     0.142030000000     0.856310000000     0.344671   
C10      C      0.334710000000     0.172100000000     0.946560000000     0.346894   
C11      C      0.346240000000     0.081850000000     0.944100000000     0.347003   
C12      C      0.433370000000     0.175920000000     0.952720000000     0.34575    
C13      C      0.172020000000     0.351400000000     0.120240000000     0.345027   
C14      C      0.206900000000     0.299730000000     0.027940000000     0.346864   
C15      C      0.117600000000     0.308370000000     0.032020000000     0.346138   
C16      C      0.211570000000     0.398050000000     0.026190000000     0.344959   
C17      C      0.486170000000     0.242980000000     0.981670000000    -0.0809701  
C18      C      0.011490000000     0.231820000000     0.987020000000     0.0359909  
C19      C      0.009910000000     0.201120000000     0.981120000000    -0.0803682  
C20      C      0.483570000000     0.182540000000     0.969820000000     0.0702705  
C21      C      0.460260000000     0.223800000000     0.970600000000     0.0705302  
C22      C      0.039200000000     0.252130000000     0.998930000000     0.0361403  
C23      C      0.048740000000     0.281520000000     0.986850000000    -0.0803837  
C24      C      0.074840000000     0.300270000000     0.998420000000     0.0706736  
C25      C      0.082020000000     0.261820000000     0.033970000000     0.070529   
C26      C      0.056200000000     0.242460000000     0.022830000000    -0.080889   
C27      C      0.279690000000     0.452460000000     0.004710000000    -0.0807421  
C28      C      0.268810000000     0.475700000000     0.990620000000     0.0359731  
C29      C      0.238010000000     0.472300000000     0.988650000000    -0.0799833  
C30      C      0.219010000000     0.446210000000     0.000680000000     0.070194   
C31      C      0.260150000000     0.426800000000     0.016430000000     0.0702893  
C32      C      0.289590000000     0.003170000000     0.978020000000     0.0362489  
C33      C      0.315860000000     0.016000000000     0.994440000000    -0.0805077  
C34      C      0.335000000000     0.041890000000     0.982370000000     0.0709626  
C35      C      0.303140000000     0.042550000000     0.937910000000     0.070633   
C36      C      0.283530000000     0.016700000000     0.949270000000    -0.0807682  
C37      C      0.236280000000     0.251060000000     0.972910000000    -0.0815153  
C38      C      0.256230000000     0.240740000000     0.992920000000     0.0367119  
C39      C      0.258480000000     0.249940000000     0.025210000000    -0.0812934  
C40      C      0.241360000000     0.269200000000     0.036660000000     0.0718772  
C41      C      0.219780000000     0.270650000000     0.985070000000     0.071504   
C42      C      0.275370000000     0.221390000000     0.980030000000     0.0367544  
C43      C      0.282990000000     0.198930000000     0.999150000000    -0.0815936  
C44      C      0.302630000000     0.182410000000     0.987430000000     0.0716424  
C45      C      0.306360000000     0.208690000000     0.937750000000     0.0718579  
C46      C      0.287100000000     0.225920000000     0.948850000000    -0.0812897  
C47      C      0.363580000000     0.150340000000     0.705380000000    -0.0813068  
C48      C      0.386680000000     0.140290000000     0.720250000000     0.0365437  
C49      C      0.406950000000     0.129910000000     0.700710000000    -0.0804635  
C50      C      0.404370000000     0.130830000000     0.667120000000     0.0705983  
C51      C      0.361810000000     0.151150000000     0.671960000000     0.071562   
C52      C      0.389560000000     0.141470000000     0.755930000000     0.0364969  
C53      C      0.383190000000     0.165800000000     0.772930000000    -0.0813134  
C54      C      0.383380000000     0.165830000000     0.806430000000     0.0714356  
C55      C      0.397830000000     0.119110000000     0.807170000000     0.0706743  
C56      C      0.397610000000     0.118210000000     0.773430000000    -0.0804194  
C57      C      0.155400000000     0.377960000000     0.273450000000    -0.0803187  
C58      C      0.163530000000     0.354700000000     0.256030000000     0.0365761  
C59      C      0.170070000000     0.330500000000     0.273140000000    -0.0813845  
C60      C      0.170000000000     0.330650000000     0.306650000000     0.0716095  
C61      C      0.155230000000     0.377210000000     0.307190000000     0.0707473  
C62      C      0.166300000000     0.355730000000     0.220320000000     0.0365103  
C63      C      0.146170000000     0.366370000000     0.200810000000    -0.080428   
C64      C      0.148730000000     0.365490000000     0.167210000000     0.0705132  
C65      C      0.190910000000     0.344550000000     0.171970000000     0.0713952  
C66      C      0.189200000000     0.345370000000     0.205390000000    -0.0812344  
C67      C      0.498970000000     0.250810000000     0.521640000000    -0.0806691  
C68      C      0.012930000000     0.242840000000     0.494150000000     0.035981   
C69      C      0.500810000000     0.214990000000     0.479500000000    -0.0802094  
C70      C      0.475200000000     0.196160000000     0.492110000000     0.0703808  
C71      C      0.473480000000     0.231490000000     0.533570000000     0.0703694  
C72      C      0.040250000000     0.263250000000     0.481290000000     0.0361411  
C73      C      0.043560000000     0.294690000000     0.481040000000    -0.0800543  
C74      C      0.069750000000     0.313420000000     0.469570000000     0.0702572  
C75      C      0.089380000000     0.270750000000     0.458420000000     0.07053    
C76      C      0.063590000000     0.251450000000     0.469650000000    -0.0807108  
C77      C      0.272600000000     0.041990000000     0.512380000000    -0.08068    
C78      C      0.283030000000     0.520060000000     0.495190000000     0.0361109  
C79      C      0.313680000000     0.024470000000     0.490400000000    -0.0800566  
C80      C      0.332940000000     0.050400000000     0.502370000000     0.0702979  
C81      C      0.292410000000     0.067540000000     0.523980000000     0.0705061  
C82      C      0.261990000000     0.493010000000     0.482020000000     0.036076   
C83      C      0.236860000000     0.478530000000     0.499470000000    -0.0801967  
C84      C      0.217600000000     0.452970000000     0.486790000000     0.070368   
C85      C      0.247040000000     0.455970000000     0.439760000000     0.0703532  
C86      C      0.266680000000     0.481540000000     0.451650000000    -0.0806212  
C87      C      0.303860000000     0.234400000000     0.473700000000    -0.0813196  
C88      C      0.296210000000     0.255880000000     0.494210000000     0.0366829  
C89      C      0.306600000000     0.257780000000     0.526010000000    -0.0814699  
C90      C      0.323480000000     0.238010000000     0.536820000000     0.0717158  
C91      C      0.321050000000     0.215220000000     0.485220000000     0.0714898  
C92      C      0.276650000000     0.275390000000     0.482790000000     0.0367558  
C93      C      0.278630000000     0.286340000000     0.451140000000    -0.081454   
C94      C      0.258850000000     0.303140000000     0.440320000000     0.0715547  
C95      C      0.235900000000     0.299520000000     0.491660000000     0.0716575  
C96      C      0.255090000000     0.282410000000     0.503170000000    -0.081388   
C97      C      0.165590000000     0.854600000000     0.356420000000     0.345216   
C98      C      0.217550000000     0.824830000000     0.449060000000     0.346801   
C99      C      0.205420000000     0.915080000000     0.446260000000     0.34478    
C100     C      0.118400000000     0.819780000000     0.447780000000     0.344768   
C101     C      0.380900000000     0.644790000000     0.620200000000     0.345398   
C102     C      0.346080000000     0.696860000000     0.527920000000     0.347033   
C103     C      0.435530000000     0.686830000000     0.530000000000     0.344828   
C104     C      0.341050000000     0.597690000000     0.529720000000     0.344604   
C105     C      0.387700000000     0.642030000000     0.856310000000     0.344764   
C106     C      0.334710000000     0.672100000000     0.946560000000     0.346897   
C107     C      0.346240000000     0.581850000000     0.944100000000     0.347004   
C108     C      0.433370000000     0.675920000000     0.952720000000     0.345746   
C109     C      0.172020000000     0.851400000000     0.120240000000     0.34503    
C110     C      0.206900000000     0.799730000000     0.027940000000     0.346864   
C111     C      0.117600000000     0.808370000000     0.032020000000     0.346138   
C112     C      0.211570000000     0.898050000000     0.026190000000     0.344959   
C113     C      0.486170000000     0.742980000000     0.981670000000    -0.0810066  
C114     C      0.011490000000     0.731820000000     0.987020000000     0.0359918  
C115     C      0.009910000000     0.701120000000     0.981120000000    -0.0803693  
C116     C      0.483570000000     0.682540000000     0.969810000000     0.0702751  
C117     C      0.460260000000     0.723800000000     0.970600000000     0.0705436  
C118     C      0.039200000000     0.752130000000     0.998930000000     0.0361534  
C119     C      0.048740000000     0.781520000000     0.986860000000    -0.0803979  
C120     C      0.074840000000     0.800270000000     0.998420000000     0.0706854  
C121     C      0.082020000000     0.761820000000     0.033970000000     0.0705321  
C122     C      0.056200000000     0.742460000000     0.022830000000    -0.0808933  
C123     C      0.279690000000     0.952460000000     0.004710000000    -0.0807417  
C124     C      0.268810000000     0.975700000000     0.990620000000     0.0359754  
C125     C      0.238010000000     0.972300000000     0.988650000000    -0.0799826  
C126     C      0.219010000000     0.946210000000     0.000680000000     0.0701956  
C127     C      0.260150000000     0.926800000000     0.016430000000     0.0702904  
C128     C      0.289590000000     0.503170000000     0.978020000000     0.0362463  
C129     C      0.315860000000     0.516000000000     0.994440000000    -0.0805082  
C130     C      0.335000000000     0.541890000000     0.982370000000     0.0709614  
C131     C      0.303140000000     0.542550000000     0.937910000000     0.0706317  
C132     C      0.283530000000     0.516700000000     0.949270000000    -0.0807688  
C133     C      0.236280000000     0.751060000000     0.972910000000    -0.0815089  
C134     C      0.256230000000     0.740740000000     0.992920000000     0.0366934  
C135     C      0.258480000000     0.749940000000     0.025210000000    -0.0812698  
C136     C      0.241360000000     0.769210000000     0.036660000000     0.0718846  
C137     C      0.219780000000     0.770650000000     0.985070000000     0.071504   
C138     C      0.275370000000     0.721380000000     0.980030000000     0.0368017  
C139     C      0.282990000000     0.698930000000     0.999150000000    -0.0816352  
C140     C      0.302630000000     0.682410000000     0.987430000000     0.0716597  
C141     C      0.306360000000     0.708690000000     0.937750000000     0.0718668  
C142     C      0.287100000000     0.725920000000     0.948850000000    -0.0813153  
C143     C      0.363580000000     0.650340000000     0.705380000000    -0.0813646  
C144     C      0.386680000000     0.640290000000     0.720250000000     0.0365836  
C145     C      0.406950000000     0.629910000000     0.700710000000    -0.0805139  
C146     C      0.404370000000     0.630830000000     0.667120000000     0.0706283  
C147     C      0.361810000000     0.651150000000     0.671960000000     0.0715931  
C148     C      0.389560000000     0.641470000000     0.755930000000     0.0364789  
C149     C      0.383190000000     0.665800000000     0.772930000000    -0.0813003  
C150     C      0.383380000000     0.665830000000     0.806430000000     0.0714243  
C151     C      0.397830000000     0.619110000000     0.807170000000     0.0706722  
C152     C      0.397610000000     0.618210000000     0.773430000000    -0.0804114  
C153     C      0.155400000000     0.877960000000     0.273450000000    -0.0803602  
C154     C      0.163530000000     0.854700000000     0.256030000000     0.03658    
C155     C      0.170070000000     0.830500000000     0.273150000000    -0.08138    
C156     C      0.170000000000     0.830650000000     0.306650000000     0.0716329  
C157     C      0.155230000000     0.877210000000     0.307190000000     0.0707834  
C158     C      0.166300000000     0.855730000000     0.220330000000     0.036466   
C159     C      0.146170000000     0.866370000000     0.200810000000    -0.0804235  
C160     C      0.148730000000     0.865480000000     0.167210000000     0.0705611  
C161     C      0.190910000000     0.844550000000     0.171970000000     0.0713877  
C162     C      0.189200000000     0.845370000000     0.205390000000    -0.0812064  
C163     C      0.498970000000     0.750810000000     0.521640000000    -0.080686   
C164     C      0.012930000000     0.742840000000     0.494150000000     0.0359866  
C165     C      0.500810000000     0.714990000000     0.479500000000    -0.0802204  
C166     C      0.475200000000     0.696160000000     0.492110000000     0.0703932  
C167     C      0.473480000000     0.731490000000     0.533570000000     0.0703742  
C168     C      0.040250000000     0.763250000000     0.481290000000     0.0361393  
C169     C      0.043560000000     0.794700000000     0.481040000000    -0.0801054  
C170     C      0.069750000000     0.813420000000     0.469570000000     0.0702958  
C171     C      0.089380000000     0.770750000000     0.458430000000     0.0705535  
C172     C      0.063590000000     0.751450000000     0.469650000000    -0.0807319  
C173     C      0.272600000000     0.541990000000     0.512380000000    -0.0806889  
C174     C      0.283030000000     0.020050000000     0.495190000000     0.0360866  
C175     C      0.313680000000     0.524470000000     0.490400000000    -0.0800658  
C176     C      0.332940000000     0.550400000000     0.502370000000     0.0702957  
C177     C      0.292400000000     0.567540000000     0.523980000000     0.0704368  
C178     C      0.261990000000     0.993010000000     0.482020000000     0.0360704  
C179     C      0.236860000000     0.978530000000     0.499470000000    -0.0801334  
C180     C      0.217600000000     0.952970000000     0.486790000000     0.0703429  
C181     C      0.247030000000     0.955970000000     0.439760000000     0.0703694  
C182     C      0.266680000000     0.981540000000     0.451660000000    -0.0805862  
C183     C      0.303860000000     0.734400000000     0.473700000000    -0.0813524  
C184     C      0.296220000000     0.755880000000     0.494210000000     0.036729   
C185     C      0.306600000000     0.757780000000     0.526010000000    -0.0815003  
C186     C      0.323480000000     0.738010000000     0.536820000000     0.0717271  
C187     C      0.321050000000     0.715220000000     0.485220000000     0.0715003  
C188     C      0.276650000000     0.775390000000     0.482790000000     0.0367397  
C189     C      0.278630000000     0.786350000000     0.451140000000    -0.0814423  
C190     C      0.258850000000     0.803140000000     0.440320000000     0.071573   
C191     C      0.235900000000     0.799520000000     0.491660000000     0.0716621  
C192     C      0.255090000000     0.782410000000     0.503170000000    -0.081401   
C193     C      0.665590000000     0.354600000000     0.356420000000     0.345215   
C194     C      0.717550000000     0.324830000000     0.449060000000     0.3468     
C195     C      0.705420000000     0.415080000000     0.446260000000     0.344778   
C196     C      0.618400000000     0.319780000000     0.447780000000     0.344768   
C197     C      0.880910000000     0.144790000000     0.620200000000     0.345263   
C198     C      0.846080000000     0.196860000000     0.527920000000     0.347192   
C199     C      0.935530000000     0.186830000000     0.530000000000     0.344744   
C200     C      0.841050000000     0.097690000000     0.529720000000     0.344605   
C201     C      0.887700000000     0.142030000000     0.856310000000     0.344767   
C202     C      0.834710000000     0.172100000000     0.946560000000     0.346897   
C203     C      0.846240000000     0.081850000000     0.944100000000     0.347006   
C204     C      0.933370000000     0.175920000000     0.952720000000     0.345753   
C205     C      0.672020000000     0.351400000000     0.120240000000     0.345029   
C206     C      0.706900000000     0.299730000000     0.027940000000     0.346865   
C207     C      0.617600000000     0.308370000000     0.032020000000     0.346138   
C208     C      0.711570000000     0.398050000000     0.026190000000     0.344953   
C209     C      0.986170000000     0.242980000000     0.981670000000    -0.0808569  
C210     C      0.511490000000     0.231820000000     0.987020000000     0.0360724  
C211     C      0.509910000000     0.201120000000     0.981120000000    -0.0802753  
C212     C      0.983570000000     0.182540000000     0.969820000000     0.0703778  
C213     C      0.960260000000     0.223800000000     0.970600000000     0.0705165  
C214     C      0.539200000000     0.252130000000     0.998930000000     0.0361384  
C215     C      0.548740000000     0.281520000000     0.986850000000    -0.0804115  
C216     C      0.574840000000     0.300270000000     0.998420000000     0.0706944  
C217     C      0.582030000000     0.261820000000     0.033970000000     0.070502   
C218     C      0.556200000000     0.242460000000     0.022830000000    -0.0808428  
C219     C      0.779690000000     0.452460000000     0.004710000000    -0.0807201  
C220     C      0.768810000000     0.475700000000     0.990620000000     0.0359386  
C221     C      0.738000000000     0.472300000000     0.988650000000    -0.0799576  
C222     C      0.719000000000     0.446210000000     0.000680000000     0.0701386  
C223     C      0.760150000000     0.426800000000     0.016430000000     0.0702835  
C224     C      0.789590000000     0.003170000000     0.978020000000     0.036248   
C225     C      0.815860000000     0.016000000000     0.994440000000    -0.0805034  
C226     C      0.835000000000     0.041890000000     0.982370000000     0.0709649  
C227     C      0.803140000000     0.042550000000     0.937910000000     0.070635   
C228     C      0.783530000000     0.016700000000     0.949270000000    -0.0807662  
C229     C      0.736280000000     0.251060000000     0.972910000000    -0.0815141  
C230     C      0.756230000000     0.240740000000     0.992920000000     0.0367135  
C231     C      0.758480000000     0.249940000000     0.025210000000    -0.0812921  
C232     C      0.741360000000     0.269200000000     0.036660000000     0.0718792  
C233     C      0.719780000000     0.270650000000     0.985070000000     0.0715059  
C234     C      0.775370000000     0.221390000000     0.980030000000     0.0367569  
C235     C      0.782990000000     0.198930000000     0.999150000000    -0.081594   
C236     C      0.802630000000     0.182410000000     0.987430000000     0.0716476  
C237     C      0.806360000000     0.208690000000     0.937750000000     0.0718602  
C238     C      0.787100000000     0.225920000000     0.948850000000    -0.0812886  
C239     C      0.863580000000     0.150340000000     0.705380000000    -0.0813105  
C240     C      0.886680000000     0.140290000000     0.720250000000     0.0365467  
C241     C      0.906950000000     0.129910000000     0.700710000000    -0.0804557  
C242     C      0.904370000000     0.130830000000     0.667120000000     0.0705927  
C243     C      0.861810000000     0.151150000000     0.671960000000     0.0715782  
C244     C      0.889560000000     0.141470000000     0.755930000000     0.0365025  
C245     C      0.883190000000     0.165800000000     0.772930000000    -0.0813145  
C246     C      0.883380000000     0.165830000000     0.806430000000     0.0714493  
C247     C      0.897830000000     0.119110000000     0.807170000000     0.0706822  
C248     C      0.897610000000     0.118210000000     0.773430000000    -0.080418   
C249     C      0.655400000000     0.377960000000     0.273450000000    -0.0803182  
C250     C      0.663530000000     0.354700000000     0.256030000000     0.0365763  
C251     C      0.670070000000     0.330500000000     0.273140000000    -0.0813793  
C252     C      0.670000000000     0.330650000000     0.306650000000     0.071605   
C253     C      0.655230000000     0.377210000000     0.307190000000     0.0707551  
C254     C      0.666300000000     0.355730000000     0.220320000000     0.0365166  
C255     C      0.646170000000     0.366370000000     0.200810000000    -0.0804285  
C256     C      0.648730000000     0.365490000000     0.167210000000     0.0705175  
C257     C      0.690910000000     0.344550000000     0.171970000000     0.0714148  
C258     C      0.689200000000     0.345370000000     0.205390000000    -0.0812438  
C259     C      0.998970000000     0.250810000000     0.521640000000    -0.0804113  
C260     C      0.512930000000     0.242840000000     0.494150000000     0.0361179  
C261     C      0.000810000000     0.214990000000     0.479500000000    -0.0802874  
C262     C      0.975200000000     0.196160000000     0.492110000000     0.070503   
C263     C      0.973480000000     0.231490000000     0.533570000000     0.0703023  
C264     C      0.540250000000     0.263250000000     0.481290000000     0.0360967  
C265     C      0.543560000000     0.294700000000     0.481040000000    -0.080077   
C266     C      0.569750000000     0.313420000000     0.469570000000     0.0702923  
C267     C      0.589380000000     0.270750000000     0.458420000000     0.0705285  
C268     C      0.563590000000     0.251450000000     0.469650000000    -0.0806863  
C269     C      0.772600000000     0.041990000000     0.512380000000    -0.0806389  
C270     C      0.783030000000     0.520060000000     0.495190000000     0.0361116  
C271     C      0.813680000000     0.024470000000     0.490400000000    -0.0800389  
C272     C      0.832940000000     0.050400000000     0.502370000000     0.070291   
C273     C      0.792400000000     0.067540000000     0.523980000000     0.0704203  
C274     C      0.761980000000     0.493010000000     0.482020000000     0.0361098  
C275     C      0.736860000000     0.478530000000     0.499470000000    -0.0802207  
C276     C      0.717600000000     0.452970000000     0.486790000000     0.0703752  
C277     C      0.747040000000     0.455970000000     0.439760000000     0.0703246  
C278     C      0.766680000000     0.481540000000     0.451660000000    -0.0805878  
C279     C      0.803860000000     0.234400000000     0.473700000000    -0.0813197  
C280     C      0.796210000000     0.255880000000     0.494210000000     0.0366787  
C281     C      0.806600000000     0.257780000000     0.526010000000    -0.0814479  
C282     C      0.823490000000     0.238010000000     0.536820000000     0.071724   
C283     C      0.821050000000     0.215220000000     0.485220000000     0.0715061  
C284     C      0.776650000000     0.275390000000     0.482790000000     0.0367628  
C285     C      0.778630000000     0.286340000000     0.451140000000    -0.0814598  
C286     C      0.758860000000     0.303140000000     0.440320000000     0.0715264  
C287     C      0.735900000000     0.299520000000     0.491660000000     0.0716554  
C288     C      0.755090000000     0.282410000000     0.503170000000    -0.0813855  
C289     C      0.665590000000     0.854600000000     0.356420000000     0.345214   
C290     C      0.717550000000     0.824830000000     0.449060000000     0.346799   
C291     C      0.705420000000     0.915080000000     0.446260000000     0.344777   
C292     C      0.618400000000     0.819780000000     0.447770000000     0.344795   
C293     C      0.880900000000     0.644790000000     0.620200000000     0.345398   
C294     C      0.846080000000     0.696860000000     0.527920000000     0.347035   
C295     C      0.935530000000     0.686830000000     0.530000000000     0.344833   
C296     C      0.841050000000     0.597690000000     0.529720000000     0.344495   
C297     C      0.887700000000     0.642030000000     0.856310000000     0.344672   
C298     C      0.834710000000     0.672100000000     0.946560000000     0.346898   
C299     C      0.846240000000     0.581850000000     0.944100000000     0.347006   
C300     C      0.933370000000     0.675920000000     0.952720000000     0.345754   
C301     C      0.672020000000     0.851400000000     0.120240000000     0.345033   
C302     C      0.706900000000     0.799730000000     0.027940000000     0.346864   
C303     C      0.617600000000     0.808370000000     0.032020000000     0.34614    
C304     C      0.711570000000     0.898050000000     0.026190000000     0.344959   
C305     C      0.986170000000     0.742980000000     0.981680000000    -0.0808593  
C306     C      0.511480000000     0.731820000000     0.987020000000     0.0361077  
C307     C      0.509910000000     0.701120000000     0.981120000000    -0.0802843  
C308     C      0.983570000000     0.682540000000     0.969820000000     0.070377   
C309     C      0.960260000000     0.723800000000     0.970600000000     0.0705078  
C310     C      0.539200000000     0.752130000000     0.998930000000     0.036145   
C311     C      0.548740000000     0.781520000000     0.986850000000    -0.0804169  
C312     C      0.574840000000     0.800270000000     0.998420000000     0.0706949  
C313     C      0.582020000000     0.761820000000     0.033970000000     0.0705354  
C314     C      0.556200000000     0.742460000000     0.022830000000    -0.0808836  
C315     C      0.779690000000     0.952460000000     0.004710000000    -0.0807366  
C316     C      0.768810000000     0.975700000000     0.990620000000     0.035989   
C317     C      0.738010000000     0.972300000000     0.988650000000    -0.0800136  
C318     C      0.719010000000     0.946210000000     0.000680000000     0.0702094  
C319     C      0.760150000000     0.926800000000     0.016430000000     0.0702947  
C320     C      0.789590000000     0.503170000000     0.978020000000     0.0362617  
C321     C      0.815860000000     0.516000000000     0.994440000000    -0.0805122  
C322     C      0.835000000000     0.541890000000     0.982370000000     0.0709664  
C323     C      0.803140000000     0.542550000000     0.937910000000     0.0706363  
C324     C      0.783530000000     0.516700000000     0.949270000000    -0.0807742  
C325     C      0.736280000000     0.751060000000     0.972910000000    -0.0815079  
C326     C      0.756230000000     0.740740000000     0.992920000000     0.0366953  
C327     C      0.758480000000     0.749940000000     0.025210000000    -0.0812689  
C328     C      0.741360000000     0.769210000000     0.036660000000     0.0718864  
C329     C      0.719780000000     0.770650000000     0.985070000000     0.0715058  
C330     C      0.775370000000     0.721380000000     0.980030000000     0.0368025  
C331     C      0.782990000000     0.698930000000     0.999150000000    -0.0816321  
C332     C      0.802630000000     0.682410000000     0.987430000000     0.0716587  
C333     C      0.806360000000     0.708690000000     0.937750000000     0.0718688  
C334     C      0.787100000000     0.725920000000     0.948850000000    -0.0813137  
C335     C      0.863580000000     0.650340000000     0.705380000000    -0.0813121  
C336     C      0.886680000000     0.640290000000     0.720250000000     0.0365533  
C337     C      0.906950000000     0.629910000000     0.700710000000    -0.0804706  
C338     C      0.904370000000     0.630830000000     0.667120000000     0.0706181  
C339     C      0.861810000000     0.651150000000     0.671960000000     0.0715736  
C340     C      0.889560000000     0.641470000000     0.755930000000     0.0364938  
C341     C      0.883190000000     0.665800000000     0.772930000000    -0.0812993  
C342     C      0.883380000000     0.665830000000     0.806430000000     0.0714215  
C343     C      0.897830000000     0.619110000000     0.807170000000     0.070677   
C344     C      0.897610000000     0.618210000000     0.773430000000    -0.0804131  
C345     C      0.655400000000     0.877960000000     0.273450000000    -0.0803252  
C346     C      0.663530000000     0.854700000000     0.256030000000     0.0365748  
C347     C      0.670070000000     0.830500000000     0.273140000000    -0.0813795  
C348     C      0.670000000000     0.830650000000     0.306650000000     0.0716049  
C349     C      0.655230000000     0.877210000000     0.307190000000     0.0707705  
C350     C      0.666300000000     0.855730000000     0.220320000000     0.0365288  
C351     C      0.646170000000     0.866370000000     0.200810000000    -0.080464   
C352     C      0.648730000000     0.865480000000     0.167210000000     0.0705793  
C353     C      0.690910000000     0.844550000000     0.171970000000     0.0714209  
C354     C      0.689200000000     0.845370000000     0.205390000000    -0.0812535  
C355     C      0.998970000000     0.750810000000     0.521640000000    -0.0804298  
C356     C      0.512930000000     0.742840000000     0.494150000000     0.0361302  
C357     C      0.000810000000     0.714990000000     0.479500000000    -0.080286   
C358     C      0.975200000000     0.696160000000     0.492110000000     0.0704848  
C359     C      0.973480000000     0.731490000000     0.533570000000     0.070309   
C360     C      0.540250000000     0.763250000000     0.481290000000     0.0360911  
C361     C      0.543560000000     0.794700000000     0.481040000000    -0.0800708  
C362     C      0.569750000000     0.813420000000     0.469570000000     0.0702862  
C363     C      0.589380000000     0.770750000000     0.458420000000     0.0705217  
C364     C      0.563590000000     0.751450000000     0.469650000000    -0.0806815  
C365     C      0.772600000000     0.541990000000     0.512380000000    -0.0807077  
C366     C      0.783030000000     0.020050000000     0.495190000000     0.0360702  
C367     C      0.813680000000     0.524470000000     0.490400000000    -0.080067   
C368     C      0.832940000000     0.550400000000     0.502370000000     0.0702989  
C369     C      0.792410000000     0.567540000000     0.523980000000     0.070514   
C370     C      0.761980000000     0.993010000000     0.482020000000     0.0360999  
C371     C      0.736860000000     0.978530000000     0.499470000000    -0.0801554  
C372     C      0.717600000000     0.952970000000     0.486790000000     0.0703508  
C373     C      0.747040000000     0.955970000000     0.439760000000     0.0703218  
C374     C      0.766680000000     0.981540000000     0.451660000000    -0.0805806  
C375     C      0.803860000000     0.734400000000     0.473700000000    -0.0813187  
C376     C      0.796210000000     0.755880000000     0.494210000000     0.0366867  
C377     C      0.806600000000     0.757780000000     0.526010000000    -0.081467   
C378     C      0.823480000000     0.738010000000     0.536820000000     0.0717191  
C379     C      0.821050000000     0.715220000000     0.485220000000     0.0714935  
C380     C      0.776650000000     0.775390000000     0.482790000000     0.036753   
C381     C      0.778630000000     0.786350000000     0.451140000000    -0.0814443  
C382     C      0.758860000000     0.803140000000     0.440320000000     0.0715349  
C383     C      0.735900000000     0.799520000000     0.491660000000     0.0716612  
C384     C      0.755090000000     0.782410000000     0.503170000000    -0.0814008  
Cd1      Cd     0.174440000000     0.355660000000     0.425150000000     0.510838   
Cd2      Cd     0.377860000000     0.154230000000     0.551760000000     0.511291   
Cd3      Cd     0.378640000000     0.141290000000     0.925110000000     0.510105   
Cd4      Cd     0.175290000000     0.342460000000     0.051620000000     0.510966   
Cd5      Cd     0.174440000000     0.855660000000     0.425150000000     0.510823   
Cd6      Cd     0.377860000000     0.654230000000     0.551760000000     0.511301   
Cd7      Cd     0.378630000000     0.641290000000     0.925100000000     0.510103   
Cd8      Cd     0.175290000000     0.842460000000     0.051620000000     0.510966   
Cd9      Cd     0.674440000000     0.355660000000     0.425150000000     0.510824   
Cd10     Cd     0.877860000000     0.154230000000     0.551760000000     0.511292   
Cd11     Cd     0.878630000000     0.141290000000     0.925100000000     0.510107   
Cd12     Cd     0.675290000000     0.342460000000     0.051620000000     0.510968   
Cd13     Cd     0.674440000000     0.855660000000     0.425150000000     0.510824   
Cd14     Cd     0.877860000000     0.654230000000     0.551760000000     0.511283   
Cd15     Cd     0.878630000000     0.641290000000     0.925110000000     0.510117   
Cd16     Cd     0.675290000000     0.842460000000     0.051620000000     0.510968   
H1       H      0.029040000000     0.191590000000     0.984730000000     0.0562063  
H2       H      0.483260000000     0.159030000000     0.965230000000     0.0351756  
H3       H      0.441230000000     0.233520000000     0.966830000000     0.036041   
H4       H      0.486210000000     0.266380000000     0.986390000000     0.0563821  
H5       H      0.036370000000     0.289870000000     0.968180000000     0.0563639  
H6       H      0.081650000000     0.322690000000     0.988230000000     0.0357449  
H7       H      0.094500000000     0.253320000000     0.052460000000     0.0357156  
H8       H      0.049440000000     0.220140000000     0.033210000000     0.0562912  
H9       H      0.228570000000     0.989840000000     0.978270000000     0.0559871  
H10      H      0.195370000000     0.444420000000     0.998840000000     0.0353193  
H11      H      0.269700000000     0.409410000000     0.027030000000     0.0361167  
H12      H      0.303240000000     0.453790000000     0.006310000000     0.0560738  
H13      H      0.321390000000     0.506490000000     0.016890000000     0.0561687  
H14      H      0.354820000000     0.051350000000     0.996060000000     0.0356799  
H15      H      0.297420000000     0.052390000000     0.915690000000     0.0355142  
H16      H      0.263840000000     0.007290000000     0.935420000000     0.0561309  
H17      H      0.273920000000     0.242980000000     0.041480000000     0.0561916  
H18      H      0.244010000000     0.276050000000     0.061710000000     0.0364292  
H19      H      0.204790000000     0.278360000000     0.968760000000     0.034728   
H20      H      0.233360000000     0.244100000000     0.947960000000     0.0556781  
H21      H      0.273960000000     0.194140000000     0.023120000000     0.0557977  
H22      H      0.308290000000     0.165510000000     0.003120000000     0.0348528  
H23      H      0.315300000000     0.213200000000     0.913660000000     0.0361568  
H24      H      0.282190000000     0.243270000000     0.933330000000     0.0560407  
H25      H      0.425150000000     0.121950000000     0.711200000000     0.0560207  
H26      H      0.420760000000     0.123230000000     0.652690000000     0.035041   
H27      H      0.343770000000     0.159540000000     0.661590000000     0.0367108  
H28      H      0.346880000000     0.157730000000     0.719470000000     0.0566274  
H29      H      0.377760000000     0.184740000000     0.760440000000     0.05653    
H30      H      0.377720000000     0.184900000000     0.818510000000     0.0365178  
H31      H      0.403420000000     0.100400000000     0.819980000000     0.0351696  
H32      H      0.402730000000     0.098980000000     0.761260000000     0.0560485  
H33      H      0.175540000000     0.311540000000     0.260770000000     0.0565309  
H34      H      0.175790000000     0.311700000000     0.318810000000     0.0363742  
H35      H      0.149560000000     0.395910000000     0.319920000000     0.0352215  
H36      H      0.150160000000     0.397110000000     0.261220000000     0.0559852  
H37      H      0.128110000000     0.374550000000     0.211310000000     0.0559239  
H38      H      0.132470000000     0.373340000000     0.152810000000     0.0349419  
H39      H      0.208790000000     0.335940000000     0.161560000000     0.0367969  
H40      H      0.205820000000     0.337800000000     0.219420000000     0.0566037  
H41      H      0.510700000000     0.207950000000     0.458060000000     0.0560707  
H42      H      0.466300000000     0.175030000000     0.479860000000     0.0356492  
H43      H      0.463390000000     0.238720000000     0.554820000000     0.0359693  
H44      H      0.007830000000     0.271760000000     0.534170000000     0.0561333  
H45      H      0.025950000000     0.304840000000     0.489430000000     0.0560258  
H46      H      0.071510000000     0.337570000000     0.469810000000     0.0353787  
H47      H      0.106910000000     0.260510000000     0.449880000000     0.0362839  
H48      H      0.062280000000     0.227400000000     0.469760000000     0.0561666  
H49      H      0.322830000000     0.507920000000     0.477660000000     0.0560967  
H50      H      0.356430000000     0.053070000000     0.498070000000     0.0355475  
H51      H      0.283200000000     0.084000000000     0.536890000000     0.0361314  
H52      H      0.249150000000     0.039820000000     0.516360000000     0.056057   
H53      H      0.232370000000     0.486440000000     0.523130000000     0.0559627  
H54      H      0.198760000000     0.442120000000     0.501280000000     0.03558    
H55      H      0.251760000000     0.447740000000     0.416280000000     0.0359392  
H56      H      0.285360000000     0.492310000000     0.436970000000     0.0562429  
H57      H      0.301730000000     0.274410000000     0.542540000000     0.0558995  
H58      H      0.330860000000     0.240000000000     0.561680000000     0.0359311  
H59      H      0.326170000000     0.198670000000     0.468700000000     0.0351676  
H60      H      0.296000000000     0.231790000000     0.449080000000     0.0561556  
H61      H      0.295310000000     0.281980000000     0.434730000000     0.0558742  
H62      H      0.260880000000     0.310940000000     0.415570000000     0.0356925  
H63      H      0.219280000000     0.304120000000     0.508080000000     0.0353971  
H64      H      0.252430000000     0.274080000000     0.527670000000     0.0561916  
H65      H      0.029040000000     0.691590000000     0.984730000000     0.0562051  
H66      H      0.483260000000     0.659030000000     0.965230000000     0.035171   
H67      H      0.441230000000     0.733520000000     0.966820000000     0.0360419  
H68      H      0.486210000000     0.766380000000     0.986390000000     0.0563914  
H69      H      0.036380000000     0.789870000000     0.968180000000     0.0563652  
H70      H      0.081650000000     0.822690000000     0.988230000000     0.0357402  
H71      H      0.094500000000     0.753320000000     0.052460000000     0.0357145  
H72      H      0.049440000000     0.720140000000     0.033210000000     0.0562919  
H73      H      0.228570000000     0.489840000000     0.978270000000     0.0559836  
H74      H      0.195370000000     0.944420000000     0.998840000000     0.0353211  
H75      H      0.269700000000     0.909410000000     0.027030000000     0.0361173  
H76      H      0.303240000000     0.953790000000     0.006310000000     0.0560756  
H77      H      0.321390000000     0.006490000000     0.016890000000     0.0561711  
H78      H      0.354820000000     0.551350000000     0.996060000000     0.0356795  
H79      H      0.297420000000     0.552390000000     0.915690000000     0.0355123  
H80      H      0.263840000000     0.507290000000     0.935420000000     0.0561281  
H81      H      0.273920000000     0.742980000000     0.041480000000     0.0561857  
H82      H      0.244010000000     0.776050000000     0.061710000000     0.0364208  
H83      H      0.204790000000     0.778360000000     0.968760000000     0.0347278  
H84      H      0.233360000000     0.744100000000     0.947960000000     0.0556755  
H85      H      0.273960000000     0.694140000000     0.023120000000     0.0558079  
H86      H      0.308280000000     0.665510000000     0.003120000000     0.0348379  
H87      H      0.315300000000     0.713200000000     0.913660000000     0.0361553  
H88      H      0.282190000000     0.743270000000     0.933330000000     0.0560477  
H89      H      0.425150000000     0.621950000000     0.711190000000     0.0560405  
H90      H      0.420760000000     0.623220000000     0.652690000000     0.0350311  
H91      H      0.343770000000     0.659540000000     0.661590000000     0.0367033  
H92      H      0.346880000000     0.657720000000     0.719470000000     0.0566547  
H93      H      0.377760000000     0.684740000000     0.760440000000     0.0565287  
H94      H      0.377720000000     0.684890000000     0.818510000000     0.0365236  
H95      H      0.403420000000     0.600400000000     0.819980000000     0.035168   
H96      H      0.402730000000     0.598980000000     0.761260000000     0.0560454  
H97      H      0.175540000000     0.811540000000     0.260770000000     0.0565192  
H98      H      0.175790000000     0.811700000000     0.318810000000     0.0363691  
H99      H      0.149560000000     0.895920000000     0.319920000000     0.0352197  
H100     H      0.150170000000     0.897110000000     0.261220000000     0.0560083  
H101     H      0.128110000000     0.874550000000     0.211310000000     0.0559249  
H102     H      0.132470000000     0.873340000000     0.152810000000     0.0349346  
H103     H      0.208790000000     0.835940000000     0.161560000000     0.0367989  
H104     H      0.205820000000     0.837800000000     0.219420000000     0.0565955  
H105     H      0.510700000000     0.707950000000     0.458060000000     0.0560715  
H106     H      0.466300000000     0.675020000000     0.479860000000     0.0356537  
H107     H      0.463390000000     0.738720000000     0.554820000000     0.0359664  
H108     H      0.007820000000     0.771760000000     0.534170000000     0.0561414  
H109     H      0.025950000000     0.804840000000     0.489430000000     0.0560572  
H110     H      0.071510000000     0.837570000000     0.469810000000     0.035372   
H111     H      0.106910000000     0.760510000000     0.449880000000     0.0362829  
H112     H      0.062280000000     0.727400000000     0.469770000000     0.056172   
H113     H      0.322830000000     0.007920000000     0.477660000000     0.0560976  
H114     H      0.356430000000     0.553070000000     0.498070000000     0.0355461  
H115     H      0.283200000000     0.584000000000     0.536890000000     0.0361472  
H116     H      0.249150000000     0.539820000000     0.516350000000     0.0560614  
H117     H      0.232370000000     0.986440000000     0.523140000000     0.0559294  
H118     H      0.198760000000     0.942120000000     0.501280000000     0.0355932  
H119     H      0.251760000000     0.947740000000     0.416280000000     0.0359351  
H120     H      0.285360000000     0.992310000000     0.436970000000     0.0562233  
H121     H      0.301730000000     0.774410000000     0.542540000000     0.0559079  
H122     H      0.330860000000     0.740000000000     0.561680000000     0.035928   
H123     H      0.326180000000     0.698670000000     0.468700000000     0.0351735  
H124     H      0.296000000000     0.731790000000     0.449080000000     0.0561623  
H125     H      0.295310000000     0.781980000000     0.434730000000     0.0558614  
H126     H      0.260880000000     0.810940000000     0.415570000000     0.0356881  
H127     H      0.219280000000     0.804120000000     0.508080000000     0.0353948  
H128     H      0.252430000000     0.774090000000     0.527670000000     0.0562017  
H129     H      0.529040000000     0.191590000000     0.984730000000     0.0562024  
H130     H      0.983260000000     0.159030000000     0.965230000000     0.0351756  
H131     H      0.941230000000     0.233520000000     0.966830000000     0.0360546  
H132     H      0.986210000000     0.266380000000     0.986390000000     0.0563858  
H133     H      0.536380000000     0.289870000000     0.968180000000     0.05641    
H134     H      0.581650000000     0.322690000000     0.988230000000     0.0357472  
H135     H      0.594500000000     0.253320000000     0.052460000000     0.0357194  
H136     H      0.549440000000     0.220140000000     0.033210000000     0.0562907  
H137     H      0.728570000000     0.989840000000     0.978280000000     0.0560078  
H138     H      0.695370000000     0.444420000000     0.998840000000     0.035329   
H139     H      0.769700000000     0.409410000000     0.027030000000     0.0361217  
H140     H      0.803240000000     0.453790000000     0.006310000000     0.0560735  
H141     H      0.821390000000     0.506490000000     0.016890000000     0.0561752  
H142     H      0.854820000000     0.051350000000     0.996060000000     0.0356871  
H143     H      0.797420000000     0.052390000000     0.915690000000     0.0355159  
H144     H      0.763840000000     0.007290000000     0.935420000000     0.0561347  
H145     H      0.773920000000     0.242980000000     0.041480000000     0.0561953  
H146     H      0.744010000000     0.276050000000     0.061710000000     0.0364317  
H147     H      0.704790000000     0.278360000000     0.968760000000     0.0347308  
H148     H      0.733360000000     0.244100000000     0.947960000000     0.055681   
H149     H      0.773960000000     0.194140000000     0.023120000000     0.0558012  
H150     H      0.808280000000     0.165510000000     0.003120000000     0.0348448  
H151     H      0.815300000000     0.213200000000     0.913660000000     0.0361601  
H152     H      0.782190000000     0.243270000000     0.933330000000     0.0560438  
H153     H      0.925150000000     0.121950000000     0.711200000000     0.05603    
H154     H      0.920760000000     0.123230000000     0.652690000000     0.0350512  
H155     H      0.843770000000     0.159540000000     0.661590000000     0.0367116  
H156     H      0.846880000000     0.157730000000     0.719470000000     0.0566314  
H157     H      0.877760000000     0.184740000000     0.760440000000     0.0565361  
H158     H      0.877720000000     0.184900000000     0.818510000000     0.036528   
H159     H      0.903420000000     0.100400000000     0.819980000000     0.0351754  
H160     H      0.902730000000     0.098980000000     0.761260000000     0.056056   
H161     H      0.675540000000     0.311540000000     0.260770000000     0.0565334  
H162     H      0.675790000000     0.311700000000     0.318810000000     0.0363794  
H163     H      0.649560000000     0.395910000000     0.319920000000     0.035225   
H164     H      0.650160000000     0.397110000000     0.261220000000     0.0559897  
H165     H      0.628110000000     0.374550000000     0.211310000000     0.055931   
H166     H      0.632470000000     0.373340000000     0.152810000000     0.0349472  
H167     H      0.708800000000     0.335940000000     0.161560000000     0.0368009  
H168     H      0.705820000000     0.337800000000     0.219420000000     0.0566074  
H169     H      0.010700000000     0.207950000000     0.458060000000     0.0560673  
H170     H      0.966300000000     0.175030000000     0.479860000000     0.0356399  
H171     H      0.963390000000     0.238720000000     0.554820000000     0.0360023  
H172     H      0.507830000000     0.271760000000     0.534170000000     0.0562539  
H173     H      0.525950000000     0.304840000000     0.489430000000     0.0560663  
H174     H      0.571510000000     0.337570000000     0.469810000000     0.0353809  
H175     H      0.606910000000     0.260510000000     0.449880000000     0.0362903  
H176     H      0.562280000000     0.227400000000     0.469760000000     0.0561686  
H177     H      0.822830000000     0.507920000000     0.477660000000     0.0561031  
H178     H      0.856430000000     0.053070000000     0.498070000000     0.035557   
H179     H      0.783200000000     0.084000000000     0.536890000000     0.0361535  
H180     H      0.749150000000     0.039820000000     0.516360000000     0.0560492  
H181     H      0.732370000000     0.486440000000     0.523130000000     0.0559718  
H182     H      0.698760000000     0.442120000000     0.501280000000     0.0355868  
H183     H      0.751760000000     0.447740000000     0.416280000000     0.0359484  
H184     H      0.785360000000     0.492310000000     0.436970000000     0.0562239  
H185     H      0.801730000000     0.274410000000     0.542540000000     0.0558981  
H186     H      0.830860000000     0.240000000000     0.561680000000     0.0359249  
H187     H      0.826170000000     0.198670000000     0.468700000000     0.035174   
H188     H      0.796000000000     0.231790000000     0.449080000000     0.05616    
H189     H      0.795310000000     0.281980000000     0.434730000000     0.0558796  
H190     H      0.760890000000     0.310940000000     0.415570000000     0.0356993  
H191     H      0.719280000000     0.304120000000     0.508080000000     0.0354014  
H192     H      0.752430000000     0.274080000000     0.527670000000     0.0561944  
H193     H      0.529040000000     0.691590000000     0.984730000000     0.0562048  
H194     H      0.983260000000     0.659030000000     0.965230000000     0.0351746  
H195     H      0.941230000000     0.733520000000     0.966830000000     0.0360569  
H196     H      0.986210000000     0.766380000000     0.986390000000     0.0563929  
H197     H      0.536380000000     0.789870000000     0.968180000000     0.056411   
H198     H      0.581650000000     0.822690000000     0.988230000000     0.0357477  
H199     H      0.594500000000     0.753320000000     0.052460000000     0.0357197  
H200     H      0.549440000000     0.720140000000     0.033210000000     0.0562999  
H201     H      0.728570000000     0.489840000000     0.978270000000     0.0559976  
H202     H      0.695370000000     0.944420000000     0.998840000000     0.0353211  
H203     H      0.769700000000     0.909400000000     0.027030000000     0.0361297  
H204     H      0.803240000000     0.953780000000     0.006310000000     0.0560738  
H205     H      0.821390000000     0.006490000000     0.016890000000     0.0561772  
H206     H      0.854820000000     0.551350000000     0.996060000000     0.0356845  
H207     H      0.797420000000     0.552390000000     0.915690000000     0.0355141  
H208     H      0.763840000000     0.507290000000     0.935420000000     0.0561328  
H209     H      0.773920000000     0.742980000000     0.041480000000     0.0561888  
H210     H      0.744010000000     0.776050000000     0.061710000000     0.0364228  
H211     H      0.704790000000     0.778360000000     0.968760000000     0.0347307  
H212     H      0.733360000000     0.744100000000     0.947960000000     0.0556785  
H213     H      0.773960000000     0.694140000000     0.023120000000     0.0558102  
H214     H      0.808290000000     0.665510000000     0.003120000000     0.0348518  
H215     H      0.815300000000     0.713200000000     0.913660000000     0.0361578  
H216     H      0.782190000000     0.743270000000     0.933330000000     0.0560505  
H217     H      0.925150000000     0.621950000000     0.711200000000     0.0560318  
H218     H      0.920760000000     0.623220000000     0.652690000000     0.0350458  
H219     H      0.843770000000     0.659540000000     0.661590000000     0.0367112  
H220     H      0.846880000000     0.657730000000     0.719470000000     0.0566312  
H221     H      0.877760000000     0.684740000000     0.760440000000     0.0565335  
H222     H      0.877720000000     0.684890000000     0.818510000000     0.0365215  
H223     H      0.903420000000     0.600400000000     0.819980000000     0.0351758  
H224     H      0.902730000000     0.598980000000     0.761260000000     0.0560527  
H225     H      0.675540000000     0.811540000000     0.260770000000     0.0565326  
H226     H      0.675790000000     0.811700000000     0.318810000000     0.0363786  
H227     H      0.649560000000     0.895920000000     0.319920000000     0.0352275  
H228     H      0.650160000000     0.897110000000     0.261220000000     0.0559918  
H229     H      0.628110000000     0.874550000000     0.211310000000     0.0559406  
H230     H      0.632470000000     0.873340000000     0.152810000000     0.0349359  
H231     H      0.708800000000     0.835940000000     0.161560000000     0.0367994  
H232     H      0.705820000000     0.837800000000     0.219420000000     0.0566099  
H233     H      0.010700000000     0.707950000000     0.458060000000     0.0560668  
H234     H      0.966300000000     0.675020000000     0.479860000000     0.0356546  
H235     H      0.963390000000     0.738720000000     0.554820000000     0.036002   
H236     H      0.507820000000     0.771760000000     0.534170000000     0.0562625  
H237     H      0.525950000000     0.804840000000     0.489430000000     0.0560655  
H238     H      0.571510000000     0.837570000000     0.469800000000     0.0353873  
H239     H      0.606910000000     0.760510000000     0.449880000000     0.0362924  
H240     H      0.562280000000     0.727400000000     0.469760000000     0.0561667  
H241     H      0.822830000000     0.007920000000     0.477660000000     0.0560993  
H242     H      0.856430000000     0.553070000000     0.498070000000     0.035554   
H243     H      0.783200000000     0.584000000000     0.536890000000     0.0361379  
H244     H      0.749150000000     0.539820000000     0.516360000000     0.0560642  
H245     H      0.732370000000     0.986440000000     0.523140000000     0.0559391  
H246     H      0.698760000000     0.942120000000     0.501280000000     0.0355961  
H247     H      0.751760000000     0.947740000000     0.416280000000     0.0359508  
H248     H      0.785360000000     0.992310000000     0.436970000000     0.0562263  
H249     H      0.801730000000     0.774410000000     0.542540000000     0.0559039  
H250     H      0.830860000000     0.740000000000     0.561680000000     0.0359346  
H251     H      0.826170000000     0.698670000000     0.468700000000     0.0351713  
H252     H      0.796000000000     0.731790000000     0.449080000000     0.0561581  
H253     H      0.795310000000     0.781980000000     0.434730000000     0.0558678  
H254     H      0.760880000000     0.810940000000     0.415570000000     0.0357058  
H255     H      0.719280000000     0.804120000000     0.508080000000     0.0353999  
H256     H      0.752430000000     0.774090000000     0.527670000000     0.0562056  
N1       N      0.458990000000     0.193870000000     0.964500000000    -0.178364   
N2       N      0.091420000000     0.290400000000     0.021670000000    -0.178034   
N3       N      0.230050000000     0.423670000000     0.014460000000    -0.178166   
N4       N      0.328480000000     0.055270000000     0.954540000000    -0.178138   
N5       N      0.222520000000     0.279800000000     0.016610000000    -0.179116   
N6       N      0.314460000000     0.187540000000     0.957130000000    -0.179109   
N7       N      0.382310000000     0.141970000000     0.652960000000    -0.178486   
N8       N      0.390000000000     0.142380000000     0.823430000000    -0.178479   
N9       N      0.163250000000     0.354100000000     0.323550000000    -0.178513   
N10      N      0.170590000000     0.354080000000     0.153010000000    -0.178585   
N11      N      0.461510000000     0.204510000000     0.518760000000    -0.178029   
N12      N      0.092520000000     0.301490000000     0.458510000000    -0.177856   
N13      N      0.322320000000     0.071850000000     0.518840000000    -0.177872   
N14      N      0.222940000000     0.441530000000     0.457390000000    -0.178002   
N15      N      0.330380000000     0.216750000000     0.516650000000    -0.179264   
N16      N      0.237500000000     0.309370000000     0.460360000000    -0.179299   
N17      N      0.458990000000     0.693870000000     0.964500000000    -0.178369   
N18      N      0.091420000000     0.790400000000     0.021670000000    -0.178036   
N19      N      0.230050000000     0.923670000000     0.014460000000    -0.178166   
N20      N      0.328480000000     0.555270000000     0.954540000000    -0.178138   
N21      N      0.222520000000     0.779800000000     0.016610000000    -0.179126   
N22      N      0.314460000000     0.687540000000     0.957130000000    -0.179114   
N23      N      0.382310000000     0.641970000000     0.652960000000    -0.17852    
N24      N      0.390000000000     0.642380000000     0.823430000000    -0.178488   
N25      N      0.163250000000     0.854100000000     0.323550000000    -0.178521   
N26      N      0.170590000000     0.854080000000     0.153010000000    -0.178603   
N27      N      0.461510000000     0.704510000000     0.518760000000    -0.178033   
N28      N      0.092520000000     0.801490000000     0.458510000000    -0.177868   
N29      N      0.322320000000     0.571850000000     0.518840000000    -0.177839   
N30      N      0.222940000000     0.941530000000     0.457390000000    -0.177995   
N31      N      0.330380000000     0.716750000000     0.516650000000    -0.17927    
N32      N      0.237500000000     0.809370000000     0.460360000000    -0.179303   
N33      N      0.958990000000     0.193870000000     0.964500000000    -0.178367   
N34      N      0.591420000000     0.290400000000     0.021670000000    -0.178028   
N35      N      0.730050000000     0.423670000000     0.014460000000    -0.178139   
N36      N      0.828480000000     0.055270000000     0.954540000000    -0.178137   
N37      N      0.722520000000     0.279800000000     0.016610000000    -0.179116   
N38      N      0.814460000000     0.187540000000     0.957130000000    -0.179108   
N39      N      0.882310000000     0.141970000000     0.652960000000    -0.17849    
N40      N      0.890000000000     0.142380000000     0.823430000000    -0.178491   
N41      N      0.663250000000     0.354100000000     0.323550000000    -0.17851    
N42      N      0.670590000000     0.354080000000     0.153010000000    -0.178588   
N43      N      0.961520000000     0.204510000000     0.518760000000    -0.17798    
N44      N      0.592520000000     0.301490000000     0.458510000000    -0.177858   
N45      N      0.822320000000     0.071850000000     0.518840000000    -0.177833   
N46      N      0.722940000000     0.441530000000     0.457390000000    -0.177977   
N47      N      0.830380000000     0.216750000000     0.516650000000    -0.179297   
N48      N      0.737500000000     0.309370000000     0.460360000000    -0.179276   
N49      N      0.958990000000     0.693870000000     0.964500000000    -0.178366   
N50      N      0.591420000000     0.790400000000     0.021670000000    -0.178035   
N51      N      0.730050000000     0.923670000000     0.014460000000    -0.178169   
N52      N      0.828480000000     0.555270000000     0.954540000000    -0.178138   
N53      N      0.722520000000     0.779800000000     0.016610000000    -0.179126   
N54      N      0.814460000000     0.687540000000     0.957130000000    -0.179114   
N55      N      0.882310000000     0.641970000000     0.652960000000    -0.178513   
N56      N      0.890000000000     0.642380000000     0.823430000000    -0.178474   
N57      N      0.663250000000     0.854100000000     0.323550000000    -0.178513   
N58      N      0.670590000000     0.854080000000     0.153010000000    -0.178612   
N59      N      0.961510000000     0.704510000000     0.518760000000    -0.178025   
N60      N      0.592520000000     0.801490000000     0.458510000000    -0.177841   
N61      N      0.822320000000     0.571850000000     0.518840000000    -0.177849   
N62      N      0.722940000000     0.941530000000     0.457390000000    -0.177972   
N63      N      0.830380000000     0.716750000000     0.516650000000    -0.179263   
N64      N      0.737500000000     0.809370000000     0.460360000000    -0.179279   
O1       O      0.217030000000     0.332510000000     0.419760000000    -0.242779   
O2       O      0.122860000000     0.348390000000     0.447340000000    -0.246062   
O3       O      0.176030000000     0.335130000000     0.371430000000    -0.245097   
O4       O      0.211400000000     0.403050000000     0.420370000000    -0.251075   
O5       O      0.183360000000     0.400300000000     0.461940000000    -0.246333   
O6       O      0.158480000000     0.374960000000     0.373560000000    -0.248906   
O7       O      0.198110000000     0.331750000000     0.467150000000    -0.249491   
O8       O      0.139530000000     0.308870000000     0.437840000000    -0.250385   
O9       O      0.353370000000     0.196270000000     0.557290000000    -0.241763   
O10      O      0.368890000000     0.103330000000     0.525310000000    -0.245011   
O11      O      0.362130000000     0.157320000000     0.607130000000    -0.244565   
O12      O      0.421900000000     0.195100000000     0.553490000000    -0.25198    
O13      O      0.423030000000     0.161970000000     0.516920000000    -0.245298   
O14      O      0.398640000000     0.135900000000     0.601230000000    -0.250518   
O15      O      0.353730000000     0.177620000000     0.509690000000    -0.251069   
O16      O      0.331310000000     0.117780000000     0.544420000000    -0.25109    
O17      O      0.345160000000     0.175320000000     0.918250000000    -0.239661   
O18      O      0.430890000000     0.148310000000     0.945640000000    -0.247747   
O19      O      0.377620000000     0.161770000000     0.871240000000    -0.244434   
O20      O      0.339600000000     0.095500000000     0.919590000000    -0.251568   
O21      O      0.369380000000     0.095070000000     0.959200000000    -0.245667   
O22      O      0.394400000000     0.121530000000     0.873530000000    -0.248982   
O23      O      0.344610000000     0.154320000000     0.964780000000    -0.249461   
O24      O      0.410740000000     0.186290000000     0.947620000000    -0.253039   
O25      O      0.207890000000     0.307580000000     0.057300000000    -0.239397   
O26      O      0.183530000000     0.393480000000     0.024980000000    -0.246047   
O27      O      0.154670000000     0.360850000000     0.101280000000    -0.251211   
O28      O      0.133360000000     0.299300000000     0.053030000000    -0.252236   
O29      O      0.128050000000     0.334490000000     0.020510000000    -0.244705   
O30      O      0.190480000000     0.338520000000     0.107120000000    -0.244267   
O31      O      0.191000000000     0.311790000000     0.009580000000    -0.250402   
O32      O      0.221700000000     0.377300000000     0.038950000000    -0.253096   
O33      O      0.217030000000     0.832510000000     0.419760000000    -0.24278    
O34      O      0.122860000000     0.848390000000     0.447340000000    -0.246064   
O35      O      0.176030000000     0.835130000000     0.371430000000    -0.245158   
O36      O      0.211400000000     0.903050000000     0.420370000000    -0.251063   
O37      O      0.183360000000     0.900300000000     0.461950000000    -0.24626    
O38      O      0.158480000000     0.874960000000     0.373560000000    -0.248872   
O39      O      0.198110000000     0.831750000000     0.467150000000    -0.24949    
O40      O      0.139530000000     0.808870000000     0.437840000000    -0.250383   
O41      O      0.353370000000     0.696270000000     0.557290000000    -0.241765   
O42      O      0.368890000000     0.603330000000     0.525310000000    -0.24501    
O43      O      0.362130000000     0.657310000000     0.607130000000    -0.24466    
O44      O      0.421900000000     0.695100000000     0.553490000000    -0.251982   
O45      O      0.423030000000     0.661970000000     0.516920000000    -0.245301   
O46      O      0.398640000000     0.635900000000     0.601230000000    -0.250549   
O47      O      0.353730000000     0.677620000000     0.509690000000    -0.251073   
O48      O      0.331310000000     0.617780000000     0.544420000000    -0.251081   
O49      O      0.345160000000     0.675320000000     0.918250000000    -0.239688   
O50      O      0.430890000000     0.648310000000     0.945640000000    -0.247716   
O51      O      0.377620000000     0.661770000000     0.871230000000    -0.244518   
O52      O      0.339600000000     0.595500000000     0.919590000000    -0.251589   
O53      O      0.369380000000     0.595070000000     0.959200000000    -0.24565    
O54      O      0.394400000000     0.621530000000     0.873530000000    -0.249021   
O55      O      0.344610000000     0.654320000000     0.964780000000    -0.24946    
O56      O      0.410740000000     0.686290000000     0.947620000000    -0.25302    
O57      O      0.207890000000     0.807580000000     0.057300000000    -0.239398   
O58      O      0.183530000000     0.893480000000     0.024980000000    -0.246046   
O59      O      0.154670000000     0.860850000000     0.101280000000    -0.251212   
O60      O      0.133360000000     0.799300000000     0.053030000000    -0.252236   
O61      O      0.128050000000     0.834490000000     0.020510000000    -0.244704   
O62      O      0.190480000000     0.838520000000     0.107120000000    -0.244268   
O63      O      0.191000000000     0.811790000000     0.009580000000    -0.250402   
O64      O      0.221700000000     0.877300000000     0.038950000000    -0.253096   
O65      O      0.717030000000     0.332510000000     0.419760000000    -0.242773   
O66      O      0.622860000000     0.348390000000     0.447340000000    -0.246059   
O67      O      0.676030000000     0.335130000000     0.371430000000    -0.245155   
O68      O      0.711400000000     0.403050000000     0.420370000000    -0.25106    
O69      O      0.683360000000     0.400300000000     0.461950000000    -0.246257   
O70      O      0.658480000000     0.374960000000     0.373560000000    -0.248867   
O71      O      0.698110000000     0.331750000000     0.467150000000    -0.249487   
O72      O      0.639530000000     0.308870000000     0.437840000000    -0.250379   
O73      O      0.853370000000     0.196270000000     0.557290000000    -0.241808   
O74      O      0.868890000000     0.103330000000     0.525310000000    -0.245002   
O75      O      0.862130000000     0.157320000000     0.607130000000    -0.244479   
O76      O      0.921900000000     0.195100000000     0.553490000000    -0.251951   
O77      O      0.923030000000     0.161970000000     0.516920000000    -0.245265   
O78      O      0.898640000000     0.135900000000     0.601230000000    -0.25058    
O79      O      0.853730000000     0.177630000000     0.509690000000    -0.251173   
O80      O      0.831310000000     0.117780000000     0.544420000000    -0.251086   
O81      O      0.845160000000     0.175320000000     0.918250000000    -0.239686   
O82      O      0.930890000000     0.148310000000     0.945640000000    -0.247705   
O83      O      0.877620000000     0.161770000000     0.871230000000    -0.244515   
O84      O      0.839600000000     0.095500000000     0.919590000000    -0.251586   
O85      O      0.869380000000     0.095070000000     0.959200000000    -0.245643   
O86      O      0.894400000000     0.121530000000     0.873530000000    -0.249013   
O87      O      0.844610000000     0.154320000000     0.964780000000    -0.249456   
O88      O      0.910740000000     0.186290000000     0.947620000000    -0.253013   
O89      O      0.707890000000     0.307580000000     0.057300000000    -0.239395   
O90      O      0.683530000000     0.393480000000     0.024980000000    -0.24604    
O91      O      0.654670000000     0.360850000000     0.101280000000    -0.251206   
O92      O      0.633360000000     0.299300000000     0.053030000000    -0.252232   
O93      O      0.628050000000     0.334490000000     0.020510000000    -0.244699   
O94      O      0.690480000000     0.338520000000     0.107120000000    -0.244266   
O95      O      0.691000000000     0.311790000000     0.009580000000    -0.250399   
O96      O      0.721700000000     0.377300000000     0.038950000000    -0.253093   
O97      O      0.717030000000     0.832510000000     0.419760000000    -0.242774   
O98      O      0.622860000000     0.848390000000     0.447340000000    -0.246068   
O99      O      0.676030000000     0.835130000000     0.371430000000    -0.245157   
O100     O      0.711400000000     0.903050000000     0.420370000000    -0.251058   
O101     O      0.683360000000     0.900300000000     0.461950000000    -0.246254   
O102     O      0.658480000000     0.874960000000     0.373560000000    -0.24887    
O103     O      0.698110000000     0.831750000000     0.467150000000    -0.249482   
O104     O      0.639530000000     0.808870000000     0.437840000000    -0.250417   
O105     O      0.853370000000     0.696270000000     0.557290000000    -0.241762   
O106     O      0.868890000000     0.603330000000     0.525310000000    -0.244985   
O107     O      0.862130000000     0.657310000000     0.607130000000    -0.244659   
O108     O      0.921900000000     0.695100000000     0.553490000000    -0.251973   
O109     O      0.923030000000     0.661970000000     0.516920000000    -0.245293   
O110     O      0.898640000000     0.635900000000     0.601230000000    -0.250542   
O111     O      0.853730000000     0.677620000000     0.509690000000    -0.251068   
O112     O      0.831300000000     0.617780000000     0.544420000000    -0.250996   
O113     O      0.845160000000     0.675320000000     0.918250000000    -0.23968    
O114     O      0.930890000000     0.648310000000     0.945640000000    -0.247714   
O115     O      0.877620000000     0.661770000000     0.871240000000    -0.244433   
O116     O      0.839600000000     0.595500000000     0.919590000000    -0.251584   
O117     O      0.869380000000     0.595070000000     0.959200000000    -0.245659   
O118     O      0.894400000000     0.621530000000     0.873530000000    -0.248965   
O119     O      0.844610000000     0.654320000000     0.964780000000    -0.249478   
O120     O      0.910740000000     0.686290000000     0.947620000000    -0.253022   
O121     O      0.707890000000     0.807580000000     0.057300000000    -0.239397   
O122     O      0.683530000000     0.893480000000     0.024980000000    -0.246042   
O123     O      0.654670000000     0.860850000000     0.101280000000    -0.251208   
O124     O      0.633360000000     0.799300000000     0.053030000000    -0.252233   
O125     O      0.628050000000     0.834490000000     0.020510000000    -0.244699   
O126     O      0.690480000000     0.838520000000     0.107120000000    -0.244268   
O127     O      0.691000000000     0.811790000000     0.009580000000    -0.2504     
O128     O      0.721700000000     0.877300000000     0.038950000000    -0.253098   


