data_structure

_audit_creation_method RASPA-1.0
_audit_creation_date 2023-6-5
_audit_author_name 'Poobodin Mano'

_cell_length_a    44.5894
_cell_length_b    43.6048
_cell_length_c    25.2106
_cell_angle_alpha 90.043
_cell_angle_beta  89.8771
_cell_angle_gamma 90
_cell_volume      49017.1

_symmetry_cell_setting          triclinic
_symmetry_space_group_name_Hall 'P 1'
_symmetry_space_group_name_H-M  'P 1'
_symmetry_Int_Tables_number     1

_symmetry_equiv_pos_as_xyz 'x,y,z'

loop_
_atom_site_label
_atom_site_type_symbol
_atom_site_fract_x
_atom_site_fract_y
_atom_site_fract_z
_atom_site_charge
C1       C      0.310710000000     0.309020000000     0.069200000000     0.345448   
C2       C      0.399210000000     0.326810000000     0.972980000000     0.349209   
C3       C      0.302970000000     0.308540000000     0.887560000000     0.3482     
C4       C      0.327900000000     0.402870000000     0.970390000000     0.347341   
C5       C      0.300760000000     0.726290000000     0.029400000000     0.346669   
C6       C      0.324420000000     0.628180000000     0.951450000000     0.346505   
C7       C      0.306130000000     0.722850000000     0.851020000000     0.346461   
C8       C      0.396370000000     0.698660000000     0.943070000000     0.348043   
C9       C      0.619110000000     0.327010000000     0.969140000000     0.351285   
C10      C      0.713400000000     0.313640000000     0.891830000000     0.347216   
C11      C      0.694260000000     0.404240000000     0.988680000000     0.350305   
C12      C      0.705470000000     0.310880000000     0.077900000000     0.346376   
C13      C      0.691210000000     0.628300000000     0.955260000000     0.349229   
C14      C      0.711540000000     0.718820000000     0.853610000000     0.350339   
C15      C      0.617470000000     0.696820000000     0.941400000000     0.3459     
C16      C      0.710000000000     0.729380000000     0.030200000000     0.349841   
C17      C      0.823160000000     0.131450000000     0.484280000000     0.34874    
C18      C      0.812460000000     0.224090000000     0.579700000000     0.350631   
C19      C      0.897790000000     0.209060000000     0.476650000000     0.349262   
C20      C      0.803560000000     0.224450000000     0.393130000000     0.349051   
C21      C      0.893940000000     0.832400000000     0.440880000000     0.347759   
C22      C      0.803220000000     0.812470000000     0.536770000000     0.347237   
C23      C      0.820510000000     0.906980000000     0.453430000000     0.349395   
C24      C      0.800570000000     0.820640000000     0.348530000000     0.352383   
C25      C      0.205870000000     0.812340000000     0.350230000000     0.347725   
C26      C      0.114150000000     0.827600000000     0.449930000000     0.351665   
C27      C      0.208450000000     0.811070000000     0.535360000000     0.34876    
C28      C      0.180560000000     0.904040000000     0.445010000000     0.348244   
C29      C      0.211360000000     0.218770000000     0.381100000000     0.346944   
C30      C      0.182610000000     0.129680000000     0.467540000000     0.35022    
C31      C      0.207660000000     0.221620000000     0.569150000000     0.349492   
C32      C      0.117640000000     0.210420000000     0.473700000000     0.348704   
C33      C      0.163240000000     0.953260000000     0.412010000000     0.0271347  
C34      C      0.198500000000     0.950190000000     0.482550000000     0.0683845  
C35      C      0.165280000000     0.985380000000     0.413250000000    -0.0471206  
C36      C      0.156740000000     0.050790000000     0.449470000000    -0.0820234  
C37      C      0.200180000000     0.982110000000     0.485370000000    -0.0710317  
C38      C      0.183470000000     0.034180000000     0.454970000000     0.0438687  
C39      C      0.183380000000     0.000140000000     0.450640000000     0.0261766  
C40      C      0.156940000000     0.082670000000     0.453780000000     0.0756899  
C41      C      0.209340000000     0.082390000000     0.469450000000     0.0756715  
C42      C      0.209980000000     0.050400000000     0.465230000000    -0.0814897  
C43      C      0.140210000000     0.940330000000     0.375960000000     0.293468   
C44      C      0.938800000000     0.801120000000     0.430540000000     0.0275285  
C45      C      0.941870000000     0.854440000000     0.450090000000     0.069024   
C46      C      0.970200000000     0.798800000000     0.435040000000    -0.0474821  
C47      C      0.037460000000     0.806930000000     0.412030000000    -0.0813706  
C48      C      0.972940000000     0.852700000000     0.453840000000    -0.0717762  
C49      C      0.020720000000     0.823010000000     0.450050000000     0.0439809  
C50      C      0.987500000000     0.824670000000     0.446830000000     0.0269676  
C51      C      0.068810000000     0.808040000000     0.413240000000     0.0756013  
C52      C      0.067350000000     0.839490000000     0.489980000000     0.0766332  
C53      C      0.036080000000     0.838940000000     0.489860000000    -0.0818429  
C54      C      0.922840000000     0.773320000000     0.411670000000     0.292585   
C55      C      0.811060000000     0.957030000000     0.414520000000     0.0270074  
C56      C      0.822120000000     0.951540000000     0.506350000000     0.0690022  
C57      C      0.808450000000     0.988940000000     0.421480000000    -0.0468269  
C58      C      0.794420000000     0.055270000000     0.450030000000    -0.0817878  
C59      C      0.820060000000     0.983110000000     0.513850000000    -0.0715972  
C60      C      0.814510000000     0.036250000000     0.477290000000     0.043559   
C61      C      0.813600000000     0.002320000000     0.471090000000     0.0263152  
C62      C      0.797180000000     0.087150000000     0.453650000000     0.0746608  
C63      C      0.838650000000     0.081870000000     0.511640000000     0.0749054  
C64      C      0.836590000000     0.050010000000     0.508820000000    -0.0817979  
C65      C      0.809320000000     0.945670000000     0.359120000000     0.294705   
C66      C      0.943210000000     0.232210000000     0.511940000000     0.0294141  
C67      C      0.944920000000     0.197730000000     0.438760000000     0.0693449  
C68      C      0.974500000000     0.235720000000     0.508930000000    -0.047884   
C69      C      0.040310000000     0.219040000000     0.520110000000    -0.0818088  
C70      C      0.976010000000     0.200370000000     0.435960000000    -0.07176    
C71      C      0.024590000000     0.219980000000     0.472050000000     0.0432414  
C72      C      0.991250000000     0.219270000000     0.471570000000     0.0272527  
C73      C      0.071550000000     0.216770000000     0.519950000000     0.0743921  
C74      C      0.072240000000     0.217390000000     0.425910000000     0.0742828  
C75      C      0.041010000000     0.219700000000     0.424610000000    -0.0819347  
C76      C      0.928240000000     0.247600000000     0.557310000000     0.29053    
C77      C      0.754210000000     0.723000000000     0.794190000000     0.0303026  
C78      C      0.710130000000     0.752810000000     0.781000000000     0.0709178  
C79      C      0.766590000000     0.735300000000     0.747450000000    -0.0479477  
C80      C      0.782630000000     0.754330000000     0.635140000000    -0.0813479  
C81      C      0.722140000000     0.765500000000     0.734940000000    -0.0711836  
C82      C      0.764350000000     0.771290000000     0.669690000000     0.0435115  
C83      C      0.750700000000     0.756890000000     0.717560000000     0.0278827  
C84      C      0.795600000000     0.768470000000     0.590950000000     0.0747217  
C85      C      0.772590000000     0.815700000000     0.613730000000     0.0743875  
C86      C      0.759510000000     0.802390000000     0.658460000000    -0.0816318  
C87      C      0.774390000000     0.703720000000     0.827050000000     0.293207   
C88      C      0.754250000000     0.746680000000     0.077020000000     0.0293154  
C89      C      0.705340000000     0.760080000000     0.107050000000     0.0693427  
C90      C      0.766580000000     0.759500000000     0.123170000000    -0.0482233  
C91      C      0.788560000000     0.802630000000     0.208440000000    -0.0812756  
C92      C      0.717220000000     0.773790000000     0.152400000000    -0.0716193  
C93      C      0.761220000000     0.786790000000     0.210300000000     0.044075   
C94      C      0.748120000000     0.773140000000     0.161430000000     0.0275362  
C95      C      0.801270000000     0.814010000000     0.255010000000     0.0768482  
C96      C      0.760150000000     0.795370000000     0.305300000000     0.0757738  
C97      C      0.746890000000     0.783500000000     0.259510000000    -0.0811747  
C98      C      0.775870000000     0.737050000000     0.035280000000     0.290886   
C99      C      0.805170000000     0.223800000000     0.675010000000     0.0305205  
C100     C      0.785320000000     0.263810000000     0.621220000000     0.0699657  
C101     C      0.790370000000     0.236210000000     0.719380000000    -0.0483963  
C102     C      0.772400000000     0.279900000000     0.809200000000    -0.0820297  
C103     C      0.770740000000     0.276630000000     0.664820000000    -0.0712889  
C104     C      0.757340000000     0.275990000000     0.761010000000     0.0435431  
C105     C      0.772890000000     0.262650000000     0.714400000000     0.0273437  
C106     C      0.757420000000     0.292770000000     0.852530000000     0.0748965  
C107     C      0.712900000000     0.297480000000     0.801810000000     0.0744042  
C108     C      0.727300000000     0.285040000000     0.757550000000    -0.0812308  
C109     C      0.826330000000     0.198180000000     0.685320000000     0.289534   
C110     C      0.761460000000     0.252290000000     0.356110000000     0.0285646  
C111     C      0.802080000000     0.235760000000     0.301650000000     0.0692602  
C112     C      0.746370000000     0.262980000000     0.310890000000    -0.0482145  
C113     C      0.731510000000     0.302350000000     0.214610000000    -0.0811658  
C114     C      0.787650000000     0.246630000000     0.256410000000    -0.0719974  
C115     C      0.744330000000     0.273050000000     0.213190000000     0.0432919  
C116     C      0.759450000000     0.260310000000     0.260680000000     0.0271532  
C117     C      0.718330000000     0.314520000000     0.169090000000     0.0745799  
C118     C      0.729490000000     0.269110000000     0.121110000000     0.0743646  
C119     C      0.743110000000     0.256340000000     0.165800000000    -0.0818082  
C120     C      0.747680000000     0.260070000000     0.408120000000     0.292009   
C121     C      0.686650000000     0.453940000000     0.029400000000     0.0288547  
C122     C      0.712720000000     0.449000000000     0.947340000000     0.0694541  
C123     C      0.686610000000     0.485960000000     0.023510000000    -0.0479384  
C124     C      0.703810000000     0.553070000000     0.015320000000    -0.0816229  
C125     C      0.713470000000     0.480780000000     0.941300000000    -0.0717652  
C126     C      0.699060000000     0.533470000000     0.972100000000     0.0436148  
C127     C      0.699750000000     0.499640000000     0.979000000000     0.0272324  
C128     C      0.701530000000     0.584760000000     0.008750000000     0.0754693  
C129     C      0.690610000000     0.578310000000     0.917400000000     0.0753176  
C130     C      0.692740000000     0.546480000000     0.922560000000    -0.0810061  
C131     C      0.675950000000     0.441760000000     0.081150000000     0.292105   
C132     C      0.304350000000     0.763460000000     0.784900000000     0.0280857  
C133     C      0.270980000000     0.720950000000     0.781240000000     0.0686979  
C134     C      0.289620000000     0.776690000000     0.741250000000    -0.0472826  
C135     C      0.267270000000     0.790190000000     0.629940000000    -0.0816078  
C136     C      0.256680000000     0.733250000000     0.737010000000    -0.071564   
C137     C      0.250720000000     0.774810000000     0.669110000000     0.0432395  
C138     C      0.265730000000     0.761550000000     0.716620000000     0.0269027  
C139     C      0.252790000000     0.802190000000     0.585430000000     0.074193   
C140     C      0.205970000000     0.783960000000     0.617000000000     0.0740132  
C141     C      0.219670000000     0.771860000000     0.662130000000    -0.0817016  
C142     C      0.331670000000     0.779530000000     0.803650000000     0.293358   
C143     C      0.298660000000     0.766520000000     0.095900000000     0.0281056  
C144     C      0.260470000000     0.728550000000     0.090380000000     0.0684148  
C145     C      0.285610000000     0.777830000000     0.142790000000    -0.0477169  
C146     C      0.244390000000     0.808780000000     0.221970000000    -0.0812747  
C147     C      0.246700000000     0.740010000000     0.136050000000    -0.071418   
C148     C      0.245150000000     0.777120000000     0.212360000000     0.0430717  
C149     C      0.259430000000     0.764670000000     0.163350000000     0.0268409  
C150     C      0.231260000000     0.820110000000     0.268340000000     0.0743328  
C151     C      0.219130000000     0.769660000000     0.296030000000     0.0737547  
C152     C      0.232230000000     0.757520000000     0.250130000000    -0.0813844  
C153     C      0.323750000000     0.784790000000     0.073430000000     0.292488   
C154     C      0.571120000000     0.710480000000     0.896470000000     0.0276107  
C155     C      0.570550000000     0.686070000000     0.980830000000     0.0683703  
C156     C      0.539690000000     0.712800000000     0.898110000000    -0.0473853  
C157     C      0.473760000000     0.696310000000     0.894510000000    -0.0810128  
C158     C      0.539320000000     0.687310000000     0.982420000000    -0.0715904  
C159     C      0.490020000000     0.701380000000     0.941260000000     0.043411   
C160     C      0.523440000000     0.700860000000     0.940910000000     0.0270894  
C161     C      0.442450000000     0.695910000000     0.895740000000     0.0754268  
C162     C      0.442680000000     0.705410000000     0.988330000000     0.0744741  
C163     C      0.474010000000     0.706190000000     0.988470000000    -0.0811893  
C164     C      0.585690000000     0.720270000000     0.846300000000     0.293184   
C165     C      0.292540000000     0.264430000000     0.832010000000     0.0280346  
C166     C      0.268820000000     0.312470000000     0.816350000000     0.0684164  
C167     C      0.279610000000     0.252700000000     0.785490000000    -0.0480395  
C168     C      0.235150000000     0.228170000000     0.705360000000    -0.0820061  
C169     C      0.255170000000     0.300990000000     0.770710000000    -0.0716257  
C170     C      0.246390000000     0.258180000000     0.705930000000     0.043262   
C171     C      0.260730000000     0.270890000000     0.754430000000     0.0266612  
C172     C      0.222240000000     0.216340000000     0.659290000000     0.0745336  
C173     C      0.230930000000     0.263230000000     0.614240000000     0.0738749  
C174     C      0.244020000000     0.275790000000     0.659660000000    -0.0817846  
C175     C      0.308540000000     0.242020000000     0.866110000000     0.292246   
C176     C      0.245520000000     0.212140000000     0.306800000000     0.027463   
C177     C      0.220450000000     0.259580000000     0.321810000000     0.0688898  
C178     C      0.261340000000     0.225430000000     0.264400000000    -0.0477472  
C179     C      0.274860000000     0.252740000000     0.156200000000    -0.0807959  
C180     C      0.235430000000     0.272960000000     0.279150000000    -0.0719261  
C181     C      0.271520000000     0.269590000000     0.203180000000     0.0431469  
C182     C      0.256230000000     0.255940000000     0.249980000000     0.0271349  
C183     C      0.288300000000     0.266210000000     0.111940000000     0.0744475  
C184     C      0.295630000000     0.312530000000     0.159550000000     0.0743776  
C185     C      0.282240000000     0.299780000000     0.204570000000    -0.0808984  
C186     C      0.249510000000     0.178610000000     0.314120000000     0.292978   
C187     C      0.572180000000     0.336200000000     0.923840000000     0.0287973  
C188     C      0.574090000000     0.305490000000     0.001780000000     0.0693424  
C189     C      0.540730000000     0.335440000000     0.925570000000    -0.0481332  
C190     C      0.475390000000     0.317180000000     0.921600000000    -0.0818371  
C191     C      0.542850000000     0.303810000000     0.003430000000    -0.0717376  
C192     C      0.492440000000     0.319230000000     0.968100000000     0.0433322  
C193     C      0.525760000000     0.319420000000     0.965730000000     0.0271218  
C194     C      0.444190000000     0.319230000000     0.924110000000     0.0751281  
C195     C      0.446070000000     0.324170000000     0.017710000000     0.0745015  
C196     C      0.477350000000     0.322310000000     0.016640000000    -0.081262   
C197     C      0.585980000000     0.349940000000     0.875670000000     0.292065   
C198     C      0.305970000000     0.450440000000     0.002670000000     0.0277651  
C199     C      0.343070000000     0.450380000000     0.934630000000     0.0683502  
C200     C      0.303460000000     0.482490000000     0.998120000000    -0.0482377  
C201     C      0.319450000000     0.550430000000     0.005690000000    -0.0817391  
C202     C      0.341300000000     0.482170000000     0.930230000000    -0.0720758  
C203     C      0.320360000000     0.532670000000     0.959350000000     0.0427225  
C204     C      0.321370000000     0.498640000000     0.962120000000     0.0266774  
C205     C      0.320380000000     0.582420000000     0.002360000000     0.0735781  
C206     C      0.322250000000     0.579720000000     0.908470000000     0.0734172  
C207     C      0.321460000000     0.547740000000     0.910350000000    -0.0820302  
C208     C      0.288920000000     0.436080000000     0.046760000000     0.291893   
Cd1      Cd     0.335130000000     0.336910000000     0.974450000000     0.514863   
Cd2      Cd     0.331520000000     0.694100000000     0.944470000000     0.514669   
Cd3      Cd     0.682560000000     0.338970000000     0.982510000000     0.515027   
Cd4      Cd     0.682370000000     0.693650000000     0.946390000000     0.517299   
Cd5      Cd     0.833990000000     0.196880000000     0.482230000000     0.517737   
Cd6      Cd     0.829380000000     0.841610000000     0.444650000000     0.515002   
Cd7      Cd     0.178250000000     0.837630000000     0.444790000000     0.513216   
Cd8      Cd     0.180830000000     0.195910000000     0.474450000000     0.513206   
H1       H      0.135730000000     0.094550000000     0.449310000000     0.0376983  
H2       H      0.212190000000     0.937340000000     0.510250000000     0.0399524  
H3       H      0.231180000000     0.038530000000     0.469350000000     0.0600415  
H4       H      0.214200000000     0.992540000000     0.515410000000     0.0569073  
H5       H      0.135600000000     0.039230000000     0.442620000000     0.0604776  
H6       H      0.151930000000     0.998910000000     0.385990000000     0.0603569  
H7       H      0.230320000000     0.094140000000     0.477170000000     0.0389728  
H8       H      0.124840000000     0.940980000000     0.300190000000     0.191461   
H9       H      0.081020000000     0.795940000000     0.382430000000     0.0379423  
H10      H      0.931860000000     0.876780000000     0.456820000000     0.0409727  
H11      H      0.023990000000     0.851240000000     0.520530000000     0.0605966  
H12      H      0.985530000000     0.873440000000     0.461830000000     0.0584566  
H13      H      0.026460000000     0.794450000000     0.380400000000     0.0611267  
H14      H      0.981190000000     0.776950000000     0.428250000000     0.0610687  
H15      H      0.078300000000     0.852530000000     0.521040000000     0.0391764  
H16      H      0.919160000000     0.727260000000     0.421700000000     0.192349   
H17      H      0.781480000000     0.101100000000     0.431450000000     0.0383551  
H18      H      0.827130000000     0.937800000000     0.541060000000     0.0398394  
H19      H      0.852890000000     0.036310000000     0.530020000000     0.0598645  
H20      H      0.823700000000     0.992400000000     0.553170000000     0.0568972  
H21      H      0.776740000000     0.045630000000     0.425790000000     0.0620788  
H22      H      0.804340000000     0.003460000000     0.387350000000     0.0592973  
H23      H      0.856400000000     0.091510000000     0.535800000000     0.0397706  
H24      H      0.831740000000     0.922070000000     0.301950000000     0.193023   
H25      H      0.082800000000     0.215360000000     0.557960000000     0.0374955  
H26      H      0.934340000000     0.182680000000     0.410080000000     0.0399399  
H27      H      0.029790000000     0.220870000000     0.386600000000     0.0597799  
H28      H      0.988080000000     0.186880000000     0.406800000000     0.0571422  
H29      H      0.028560000000     0.218880000000     0.557750000000     0.061108   
H30      H      0.985910000000     0.250460000000     0.537100000000     0.060125   
H31      H      0.084070000000     0.216670000000     0.388310000000     0.0383583  
H32      H      0.922970000000     0.288540000000     0.594610000000     0.192964   
H33      H      0.809560000000     0.754550000000     0.565170000000     0.0396621  
H34      H      0.687680000000     0.759990000000     0.792080000000     0.0428676  
H35      H      0.746070000000     0.816630000000     0.684470000000     0.0599286  
H36      H      0.708800000000     0.781790000000     0.712770000000     0.057496   
H37      H      0.786710000000     0.730150000000     0.641760000000     0.0626661  
H38      H      0.789290000000     0.729250000000     0.736060000000     0.0609832  
H39      H      0.768280000000     0.839830000000     0.606650000000     0.0377167  
H40      H      0.791350000000     0.697970000000     0.901140000000     0.195285   
H41      H      0.822560000000     0.825900000000     0.251840000000     0.0397716  
H42      H      0.681140000000     0.760420000000     0.102770000000     0.039879   
H43      H      0.725880000000     0.771190000000     0.262970000000     0.0600724  
H44      H      0.702140000000     0.784740000000     0.180320000000     0.0574728  
H45      H      0.800150000000     0.806340000000     0.171200000000     0.0615443  
H46      H      0.790680000000     0.759250000000     0.128710000000     0.0624351  
H47      H      0.748520000000     0.792020000000     0.342670000000     0.0378768  
H48      H      0.815010000000     0.714410000000     0.022230000000     0.190007   
H49      H      0.769860000000     0.295560000000     0.889130000000     0.0380838  
H50      H      0.782330000000     0.275190000000     0.583350000000     0.0467641  
H51      H      0.714860000000     0.282150000000     0.721010000000     0.0616019  
H52      H      0.757840000000     0.297470000000     0.659660000000     0.058992   
H53      H      0.795750000000     0.273450000000     0.813230000000     0.0613432  
H54      H      0.792900000000     0.225570000000     0.757990000000     0.0625726  
H55      H      0.689570000000     0.304050000000     0.797640000000     0.0424962  
H56      H      0.831790000000     0.158480000000     0.726300000000     0.191907   
H57      H      0.709010000000     0.337450000000     0.171640000000     0.0428548  
H58      H      0.823750000000     0.224900000000     0.296040000000     0.0394348  
H59      H      0.752540000000     0.233490000000     0.163290000000     0.0602429  
H60      H      0.798730000000     0.244610000000     0.218290000000     0.057664   
H61      H      0.732250000000     0.316120000000     0.250370000000     0.062039   
H62      H      0.724760000000     0.274160000000     0.315020000000     0.061783   
H63      H      0.729090000000     0.255520000000     0.085070000000     0.037926   
H64      H      0.708390000000     0.260930000000     0.449000000000     0.190495   
H65      H      0.705120000000     0.599090000000     0.043320000000     0.0390456  
H66      H      0.722790000000     0.435380000000     0.916000000000     0.0398781  
H67      H      0.688690000000     0.532160000000     0.888190000000     0.0610259  
H68      H      0.724530000000     0.490490000000     0.906900000000     0.0579735  
H69      H      0.709280000000     0.544020000000     0.054110000000     0.0610993  
H70      H      0.676560000000     0.500230000000     0.053990000000     0.0623325  
H71      H      0.685230000000     0.587480000000     0.878590000000     0.0399778  
H72      H      0.644080000000     0.446600000000     0.138260000000     0.191588   
H73      H      0.266410000000     0.813870000000     0.556050000000     0.0376209  
H74      H      0.262620000000     0.699130000000     0.795660000000     0.0403491  
H75      H      0.205870000000     0.760570000000     0.691630000000     0.0595272  
H76      H      0.238710000000     0.720360000000     0.718670000000     0.0565979  
H77      H      0.291370000000     0.792580000000     0.633080000000     0.0604801  
H78      H      0.297280000000     0.798560000000     0.725890000000     0.060495   
H79      H      0.181890000000     0.781210000000     0.613280000000     0.0375437  
H80      H      0.348130000000     0.820990000000     0.826040000000     0.19395    
H81      H      0.231150000000     0.844750000000     0.274090000000     0.0394604  
H82      H      0.250000000000     0.708910000000     0.071600000000     0.0397255  
H83      H      0.232590000000     0.732890000000     0.244740000000     0.059299   
H84      H      0.226070000000     0.729530000000     0.149750000000     0.0567012  
H85      H      0.253560000000     0.824880000000     0.193550000000     0.0610574  
H86      H      0.295650000000     0.797340000000     0.162670000000     0.0614234  
H87      H      0.209490000000     0.753730000000     0.324320000000     0.037206   
H88      H      0.362460000000     0.806890000000     0.091890000000     0.192414   
H89      H      0.430790000000     0.691640000000     0.858770000000     0.0405776  
H90      H      0.581620000000     0.675590000000     0.014520000000     0.0399687  
H91      H      0.485560000000     0.710650000000     0.025420000000     0.0599684  
H92      H      0.527730000000     0.677220000000     0.015930000000     0.056752   
H93      H      0.485080000000     0.691970000000     0.857210000000     0.0611219  
H94      H      0.527900000000     0.723270000000     0.865200000000     0.0607485  
H95      H      0.431160000000     0.709070000000     0.025730000000     0.039418   
H96      H      0.588580000000     0.755070000000     0.793050000000     0.191034   
H97      H      0.213840000000     0.193020000000     0.660550000000     0.037857   
H98      H      0.264270000000     0.336200000000     0.826510000000     0.0395099  
H99      H      0.252670000000     0.298980000000     0.658170000000     0.0594703  
H100     H      0.240220000000     0.315700000000     0.748400000000     0.0567447  
H101     H      0.236030000000     0.213900000000     0.740460000000     0.0606019  
H102     H      0.283800000000     0.229080000000     0.774150000000     0.0613555  
H103     H      0.229690000000     0.277530000000     0.579140000000     0.0369772  
H104     H      0.338630000000     0.207040000000     0.865350000000     0.191737   
H105     H      0.290160000000     0.252490000000     0.076190000000     0.0428794  
H106     H      0.204850000000     0.274020000000     0.343490000000     0.0400527  
H107     H      0.280410000000     0.313490000000     0.240280000000     0.060287   
H108     H      0.230380000000     0.296490000000     0.268730000000     0.0574186  
H109     H      0.266520000000     0.229480000000     0.153130000000     0.061733   
H110     H      0.277080000000     0.211680000000     0.241720000000     0.0611883  
H111     H      0.303520000000     0.336010000000     0.162120000000     0.0421493  
H112     H      0.280630000000     0.144730000000     0.319150000000     0.191437   
H113     H      0.431890000000     0.317940000000     0.887120000000     0.0390995  
H114     H      0.586280000000     0.293830000000     0.033020000000     0.0395445  
H115     H      0.489630000000     0.324200000000     0.053520000000     0.0601844  
H116     H      0.532180000000     0.290550000000     0.034480000000     0.0572588  
H117     H      0.486050000000     0.314130000000     0.883320000000     0.0608322  
H118     H      0.527940000000     0.347120000000     0.895130000000     0.0620949  
H119     H      0.435250000000     0.327110000000     0.055950000000     0.0380077  
H120     H      0.583160000000     0.385450000000     0.823810000000     0.191302   
H121     H      0.320130000000     0.595340000000     0.039120000000     0.0372297  
H122     H      0.358770000000     0.438810000000     0.908490000000     0.0393621  
H123     H      0.321790000000     0.534890000000     0.873560000000     0.05946    
H124     H      0.355930000000     0.493820000000     0.902420000000     0.0568668  
H125     H      0.318900000000     0.539720000000     0.044420000000     0.060384   
H126     H      0.288140000000     0.494920000000     0.023760000000     0.060424   
H127     H      0.323360000000     0.590450000000     0.869720000000     0.0379857  
H128     H      0.247930000000     0.433750000000     0.081810000000     0.190561   
N1       N      0.180450000000     0.935630000000     0.446200000000    -0.162753   
N2       N      0.183020000000     0.098350000000     0.463660000000    -0.177995   
N3       N      0.924640000000     0.828960000000     0.439790000000    -0.162794   
N4       N      0.083560000000     0.824720000000     0.451310000000    -0.17803    
N5       N      0.817830000000     0.938350000000     0.457380000000    -0.162327   
N6       N      0.819440000000     0.100280000000     0.483560000000    -0.178254   
N7       N      0.928400000000     0.213270000000     0.476290000000    -0.163037   
N8       N      0.087290000000     0.215240000000     0.473200000000    -0.178454   
N9       N      0.725590000000     0.731410000000     0.810170000000    -0.161735   
N10      N      0.790540000000     0.798890000000     0.580350000000    -0.178271   
N11      N      0.723400000000     0.745660000000     0.070480000000    -0.163508   
N12      N      0.787290000000     0.810160000000     0.303070000000    -0.178374   
N13      N      0.801570000000     0.237120000000     0.625500000000    -0.162394   
N14      N      0.727880000000     0.301370000000     0.848850000000    -0.177734   
N15      N      0.789030000000     0.237810000000     0.350990000000    -0.163227   
N16      N      0.717530000000     0.298110000000     0.122650000000    -0.177549   
N17      N      0.698320000000     0.435500000000     0.989580000000    -0.163447   
N18      N      0.694600000000     0.597230000000     0.960330000000    -0.178044   
N19      N      0.294310000000     0.735870000000     0.805860000000    -0.162207   
N20      N      0.222390000000     0.799050000000     0.579040000000    -0.178639   
N21      N      0.286690000000     0.740910000000     0.071060000000    -0.162434   
N22      N      0.218740000000     0.800700000000     0.305060000000    -0.178034   
N23      N      0.586600000000     0.697760000000     0.938790000000    -0.162384   
N24      N      0.427060000000     0.700130000000     0.942370000000    -0.177585   
N25      N      0.288020000000     0.294840000000     0.846120000000    -0.163069   
N26      N      0.220240000000     0.233710000000     0.614070000000    -0.178847   
N27      N      0.225640000000     0.229670000000     0.336470000000    -0.162846   
N28      N      0.298390000000     0.295930000000     0.113520000000    -0.176876   
N29      N      0.588730000000     0.322540000000     0.963880000000    -0.163676   
N30      N      0.429710000000     0.323180000000     0.971700000000    -0.178479   
N31      N      0.325470000000     0.434360000000     0.969890000000    -0.162999   
N32      N      0.322140000000     0.596890000000     0.954130000000    -0.178538   
O1       O      0.384920000000     0.330520000000     0.016010000000    -0.246809   
O2       O      0.348950000000     0.389060000000     0.946380000000    -0.247647   
O3       O      0.319990000000     0.336480000000     0.068770000000    -0.234619   
O4       O      0.325490000000     0.296350000000     0.909450000000    -0.228984   
O5       O      0.295850000000     0.334870000000     0.904960000000    -0.245982   
O6       O      0.313090000000     0.294540000000     0.025850000000    -0.239598   
O7       O      0.383660000000     0.327460000000     0.931030000000    -0.242715   
O8       O      0.309270000000     0.385710000000     0.993990000000    -0.228227   
O9       O      0.325240000000     0.644900000000     0.992570000000    -0.2474     
O10      O      0.381400000000     0.700980000000     0.985630000000    -0.240749   
O11      O      0.288310000000     0.704750000000     0.003710000000    -0.245119   
O12      O      0.298110000000     0.696540000000     0.866980000000    -0.242372   
O13      O      0.325150000000     0.736310000000     0.880050000000    -0.227482   
O14      O      0.327470000000     0.732230000000     0.015890000000    -0.227476   
O15      O      0.326520000000     0.642140000000     0.907610000000    -0.244175   
O16      O      0.381230000000     0.694480000000     0.901270000000    -0.241583   
O17      O      0.685780000000     0.320430000000     0.890610000000    -0.239176   
O18      O      0.695850000000     0.338210000000     0.077140000000    -0.238435   
O19      O      0.632850000000     0.348080000000     0.944750000000    -0.231969   
O20      O      0.707990000000     0.387080000000     0.956100000000    -0.246113   
O21      O      0.675060000000     0.390940000000     0.017610000000    -0.229881   
O22      O      0.634880000000     0.311560000000     0.001260000000    -0.246714   
O23      O      0.726770000000     0.318790000000     0.935260000000    -0.242374   
O24      O      0.703900000000     0.296330000000     0.034450000000    -0.243077   
O25      O      0.720460000000     0.694340000000     0.875410000000    -0.227345   
O26      O      0.682180000000     0.731300000000     0.020510000000    -0.24585    
O27      O      0.684440000000     0.640760000000     0.911440000000    -0.241665   
O28      O      0.634220000000     0.709940000000     0.907820000000    -0.227031   
O29      O      0.631090000000     0.683120000000     0.978580000000    -0.246177   
O30      O      0.694080000000     0.646280000000     0.994430000000    -0.244362   
O31      O      0.688200000000     0.730740000000     0.873720000000    -0.235797   
O32      O      0.724240000000     0.710300000000     0.002100000000    -0.231716   
O33      O      0.820300000000     0.196220000000     0.577020000000    -0.229322   
O34      O      0.830870000000     0.216390000000     0.390470000000    -0.245466   
O35      O      0.843940000000     0.144060000000     0.510540000000    -0.240545   
O36      O      0.880220000000     0.225000000000     0.504830000000    -0.229498   
O37      O      0.885260000000     0.188610000000     0.448660000000    -0.243775   
O38      O      0.806720000000     0.149360000000     0.457510000000    -0.246723   
O39      O      0.813880000000     0.238910000000     0.536570000000    -0.232313   
O40      O      0.790400000000     0.218450000000     0.436410000000    -0.229939   
O41      O      0.820910000000     0.798190000000     0.506060000000    -0.24219    
O42      O      0.788120000000     0.818160000000     0.393520000000    -0.247704   
O43      O      0.875920000000     0.810000000000     0.441760000000    -0.229103   
O44      O      0.831800000000     0.891090000000     0.490490000000    -0.240014   
O45      O      0.811980000000     0.892030000000     0.413080000000    -0.232259   
O46      O      0.881790000000     0.858590000000     0.443180000000    -0.244476   
O47      O      0.797900000000     0.840110000000     0.524690000000    -0.245846   
O48      O      0.826270000000     0.833000000000     0.348250000000    -0.241839   
O49      O      0.130070000000     0.815290000000     0.414040000000    -0.244      
O50      O      0.193480000000     0.888200000000     0.480420000000    -0.244013   
O51      O      0.205750000000     0.840810000000     0.360210000000    -0.244697   
O52      O      0.180560000000     0.807930000000     0.527680000000    -0.24779    
O53      O      0.222560000000     0.826260000000     0.500470000000    -0.246593   
O54      O      0.193280000000     0.795360000000     0.384480000000    -0.245879   
O55      O      0.128140000000     0.843730000000     0.483510000000    -0.243627   
O56      O      0.168100000000     0.888780000000     0.408520000000    -0.230926   
O57      O      0.206000000000     0.145180000000     0.477410000000    -0.238024   
O58      O      0.132160000000     0.207330000000     0.516560000000    -0.247926   
O59      O      0.218690000000     0.193900000000     0.403390000000    -0.232053   
O60      O      0.197830000000     0.194390000000     0.567450000000    -0.247074   
O61      O      0.205140000000     0.236950000000     0.526750000000    -0.249594   
O62      O      0.190430000000     0.233570000000     0.403630000000    -0.241808   
O63      O      0.158730000000     0.144960000000     0.461280000000    -0.247457   
O64      O      0.132690000000     0.207470000000     0.431300000000    -0.24131    
O65      O      0.139940000000     0.948610000000     0.324360000000    -0.324579   
O66      O      0.120600000000     0.923500000000     0.393370000000    -0.212157   
O67      O      0.928840000000     0.745830000000     0.433880000000    -0.325206   
O68      O      0.905440000000     0.774960000000     0.374370000000    -0.208429   
O69      O      0.832230000000     0.929350000000     0.338210000000    -0.309752   
O70      O      0.787750000000     0.952310000000     0.331580000000    -0.224063   
O71      O      0.932010000000     0.278020000000     0.564790000000    -0.322915   
O72      O      0.913860000000     0.232590000000     0.589450000000    -0.20013    
O73      O      0.778010000000     0.709960000000     0.879130000000    -0.300815   
O74      O      0.788780000000     0.683010000000     0.806460000000    -0.222823   
O75      O      0.800360000000     0.720560000000     0.048560000000    -0.324071   
O76      O      0.772290000000     0.745200000000     0.989350000000    -0.205005   
O77      O      0.818250000000     0.175180000000     0.718230000000    -0.324483   
O78      O      0.851530000000     0.198540000000     0.666120000000    -0.198926   
O79      O      0.718030000000     0.255580000000     0.415830000000    -0.325188   
O80      O      0.762770000000     0.271870000000     0.443050000000    -0.208888   
O81      O      0.651240000000     0.453800000000     0.104200000000    -0.325219   
O82      O      0.690170000000     0.421810000000     0.104080000000    -0.208123   
O83      O      0.330520000000     0.809820000000     0.814670000000    -0.322846   
O84      O      0.355530000000     0.765820000000     0.806510000000    -0.20698    
O85      O      0.346110000000     0.794520000000     0.105350000000    -0.324761   
O86      O      0.323520000000     0.792290000000     0.026720000000    -0.205955   
O87      O      0.579810000000     0.748320000000     0.826190000000    -0.323905   
O88      O      0.601740000000     0.702470000000     0.821770000000    -0.209225   
O89      O      0.328290000000     0.222210000000     0.844180000000    -0.325209   
O90      O      0.302850000000     0.240450000000     0.913490000000    -0.207998   
O91      O      0.277400000000     0.166560000000     0.315360000000    -0.325098   
O92      O      0.227670000000     0.161700000000     0.316360000000    -0.210283   
O93      O      0.574880000000     0.376300000000     0.855600000000    -0.325335   
O94      O      0.606470000000     0.336770000000     0.852780000000    -0.208244   
O95      O      0.259460000000     0.442350000000     0.052840000000    -0.324955   
O96      O      0.301770000000     0.419890000000     0.079110000000    -0.20824    


