data_structure

_audit_creation_method RASPA-1.0
_audit_creation_date 2023-5-23
_audit_author_name 'Poobodin Mano'

_cell_length_a    67.4564
_cell_length_b    68.1642
_cell_length_c    67.074
_cell_angle_alpha 90.0001
_cell_angle_beta  90.0002
_cell_angle_gamma 90.0001
_cell_volume      308414

_symmetry_cell_setting          triclinic
_symmetry_space_group_name_Hall 'P 1'
_symmetry_space_group_name_H-M  'P 1'
_symmetry_Int_Tables_number     1

_symmetry_equiv_pos_as_xyz 'x,y,z'

loop_
_atom_site_label
_atom_site_type_symbol
_atom_site_fract_x
_atom_site_fract_y
_atom_site_fract_z
_atom_site_charge
C1       C      0.116780000000     0.277170000000     0.910020000000     0.344319   
C2       C      0.121310000000     0.329530000000     0.961700000000     0.343871   
C3       C      0.156050000000     0.333660000000     0.906760000000     0.34653    
C4       C      0.080730000000     0.330630000000     0.904140000000     0.34638    
C5       C      0.205070000000     0.384450000000     0.132080000000     0.345804   
C6       C      0.151040000000     0.435380000000     0.135840000000     0.346089   
C7       C      0.150580000000     0.379100000000     0.095960000000     0.345376   
C8       C      0.148250000000     0.381850000000     0.171680000000     0.345447   
C9       C      0.118630000000     0.765300000000     0.104730000000     0.345691   
C10      C      0.123340000000     0.817870000000     0.051190000000     0.345693   
C11      C      0.081760000000     0.818440000000     0.105900000000     0.346236   
C12      C      0.156860000000     0.821830000000     0.107930000000     0.345887   
C13      C      0.080080000000     0.600760000000     0.220690000000     0.347013   
C14      C      0.033800000000     0.599140000000     0.171990000000     0.34738    
C15      C      0.091540000000     0.633800000000     0.156560000000     0.346421   
C16      C      0.098080000000     0.566370000000     0.163100000000     0.347018   
C17      C      0.096210000000     0.354090000000     0.305370000000     0.344736   
C18      C      0.041520000000     0.351760000000     0.356990000000     0.34493    
C19      C      0.096300000000     0.315470000000     0.361200000000     0.345471   
C20      C      0.099330000000     0.390560000000     0.357670000000     0.346493   
C21      C      0.366030000000     0.271650000000     0.100560000000     0.344849   
C22      C      0.376410000000     0.322140000000     0.049780000000     0.346889   
C23      C      0.337630000000     0.333560000000     0.103830000000     0.34702    
C24      C      0.410130000000     0.322010000000     0.110580000000     0.348845   
C25      C      0.872650000000     0.674460000000     0.095310000000     0.346575   
C26      C      0.865020000000     0.624910000000     0.049990000000     0.34595    
C27      C      0.902480000000     0.617900000000     0.114680000000     0.34589    
C28      C      0.835420000000     0.612090000000     0.109520000000     0.346456   
C29      C      0.698220000000     0.067840000000     0.884140000000     0.346581   
C30      C      0.652110000000     0.018830000000     0.876540000000     0.346509   
C31      C      0.639520000000     0.081580000000     0.913010000000     0.345732   
C32      C      0.635500000000     0.075560000000     0.844410000000     0.346345   
C33      C      0.584800000000     0.098700000000     0.709790000000     0.347508   
C34      C      0.538030000000     0.100160000000     0.654320000000     0.34586    
C35      C      0.591830000000     0.138860000000     0.652520000000     0.348124   
C36      C      0.599690000000     0.066810000000     0.652530000000     0.346908   
C37      C      0.368900000000     0.179890000000     0.599990000000     0.345895   
C38      C      0.366490000000     0.125410000000     0.547090000000     0.345943   
C39      C      0.404710000000     0.125970000000     0.602360000000     0.346189   
C40      C      0.328810000000     0.126200000000     0.602300000000     0.345568   
C41      C      0.092380000000     0.855950000000     0.714460000000     0.34506    
C42      C      0.040360000000     0.851710000000     0.660730000000     0.34493    
C43      C      0.096110000000     0.892830000000     0.660920000000     0.345857   
C44      C      0.095940000000     0.818140000000     0.657060000000     0.345902   
C45      C      0.650910000000     0.934260000000     0.628600000000     0.346014   
C46      C      0.704680000000     0.882260000000     0.625090000000     0.345411   
C47      C      0.648290000000     0.879760000000     0.663740000000     0.346203   
C48      C      0.649190000000     0.878350000000     0.588600000000     0.346303   
C49      C      0.596440000000     0.848480000000     0.796210000000     0.346175   
C50      C      0.542130000000     0.851660000000     0.843270000000     0.348539   
C51      C      0.598230000000     0.815250000000     0.857320000000     0.346382   
C52      C      0.603320000000     0.886840000000     0.848950000000     0.348942   
C53      C      0.895460000000     0.846230000000     0.201470000000     0.346748   
C54      C      0.946150000000     0.847300000000     0.149220000000     0.344945   
C55      C      0.895150000000     0.808410000000     0.141970000000     0.348669   
C56      C      0.886030000000     0.881580000000     0.145200000000     0.346318   
C57      C      0.586470000000     0.596060000000     0.301820000000     0.345702   
C58      C      0.533150000000     0.600710000000     0.354680000000     0.345427   
C59      C      0.590340000000     0.562360000000     0.358040000000     0.345726   
C60      C      0.587250000000     0.636770000000     0.357250000000     0.346136   
C61      C      0.646200000000     0.432740000000     0.385260000000     0.345648   
C62      C      0.699940000000     0.381240000000     0.377310000000     0.346082   
C63      C      0.648650000000     0.373400000000     0.418370000000     0.345486   
C64      C      0.641420000000     0.382050000000     0.343400000000     0.34639    
C65      C      0.701910000000     0.563300000000     0.132820000000     0.34767    
C66      C      0.655310000000     0.516680000000     0.130890000000     0.347166   
C67      C      0.637920000000     0.572270000000     0.167350000000     0.34663    
C68      C      0.644520000000     0.580470000000     0.098470000000     0.346561   
C69      C      0.543630000000     0.347330000000     0.161350000000     0.345968   
C70      C      0.591170000000     0.355110000000     0.209180000000     0.346796   
C71      C      0.601480000000     0.316480000000     0.146170000000     0.34667    
C72      C      0.606780000000     0.383750000000     0.149750000000     0.346045   
C73      C      0.838390000000     0.921730000000     0.372770000000     0.345339   
C74      C      0.788850000000     0.869170000000     0.376480000000     0.345941   
C75      C      0.845970000000     0.867690000000     0.337030000000     0.348892   
C76      C      0.848500000000     0.863570000000     0.410320000000     0.34722    
C77      C      0.442250000000     0.845760000000     0.351370000000     0.346697   
C78      C      0.395600000000     0.853150000000     0.301950000000     0.345857   
C79      C      0.383860000000     0.816750000000     0.365650000000     0.345725   
C80      C      0.378700000000     0.884180000000     0.359260000000     0.346011   
C81      C      0.615820000000     0.824540000000     0.457280000000     0.345692   
C82      C      0.614660000000     0.770120000000     0.404740000000     0.345821   
C83      C      0.576770000000     0.821550000000     0.400710000000     0.34504    
C84      C      0.653290000000     0.824250000000     0.403250000000     0.345094   
C85      C      0.389870000000     0.353240000000     0.706150000000     0.343021   
C86      C      0.441420000000     0.347880000000     0.653490000000     0.343439   
C87      C      0.386010000000     0.314790000000     0.648530000000     0.346199   
C88      C      0.385390000000     0.389450000000     0.651610000000     0.347683   
C89      C      0.617840000000     0.272350000000     0.605330000000     0.346516   
C90      C      0.620820000000     0.320160000000     0.551000000000     0.346832   
C91      C      0.577520000000     0.323760000000     0.607470000000     0.346848   
C92      C      0.649830000000     0.334920000000     0.608770000000     0.347177   
C93      C      0.120780000000     0.685890000000     0.607080000000     0.344615   
C94      C      0.116150000000     0.638170000000     0.555460000000     0.349477   
C95      C      0.150430000000     0.623650000000     0.612580000000     0.345358   
C96      C      0.078740000000     0.633850000000     0.616340000000     0.349646   
C97      C      0.149460000000     0.523130000000     0.382670000000     0.34651    
C98      C      0.197050000000     0.571240000000     0.390070000000     0.345635   
C99      C      0.132770000000     0.580480000000     0.354100000000     0.345692   
C100     C      0.138810000000     0.585280000000     0.422080000000     0.346805   
C101     C      0.364460000000     0.685290000000     0.419790000000     0.348789   
C102     C      0.371370000000     0.635750000000     0.469170000000     0.344977   
C103     C      0.329330000000     0.623950000000     0.416570000000     0.349389   
C104     C      0.400300000000     0.629380000000     0.405610000000     0.346018   
C105     C      0.338750000000     0.525280000000     0.638200000000     0.345715   
C106     C      0.285540000000     0.576590000000     0.635440000000     0.345996   
C107     C      0.341250000000     0.578360000000     0.675430000000     0.34794    
C108     C      0.344250000000     0.582680000000     0.601070000000     0.346659   
C109     C      0.154090000000     0.936720000000     0.889160000000     0.346782   
C110     C      0.204760000000     0.892400000000     0.882320000000     0.347836   
C111     C      0.149430000000     0.872280000000     0.918670000000     0.34692    
C112     C      0.142030000000     0.882000000000     0.848880000000     0.348905   
C113     C      0.292170000000     0.381020000000     0.886830000000     0.346533   
C114     C      0.344450000000     0.432720000000     0.881780000000     0.347665   
C115     C      0.351840000000     0.375740000000     0.917310000000     0.3464     
C116     C      0.345650000000     0.377480000000     0.843400000000     0.346382   
C117     C      0.368520000000     0.827570000000     0.957230000000     0.345707   
C118     C      0.375100000000     0.780050000000     0.910030000000     0.34705    
C119     C      0.339320000000     0.843890000000     0.898230000000     0.34672    
C120     C      0.407480000000     0.835940000000     0.894360000000     0.345284   
C121     C      0.391320000000     0.603550000000     0.810430000000     0.345131   
C122     C      0.444170000000     0.606410000000     0.863610000000     0.345102   
C123     C      0.393390000000     0.644250000000     0.866460000000     0.347379   
C124     C      0.388570000000     0.568890000000     0.867080000000     0.345686   
C125     C      0.867890000000     0.126430000000     0.962720000000     0.345873   
C126     C      0.865670000000     0.179340000000     0.907890000000     0.34523    
C127     C      0.906170000000     0.127860000000     0.907940000000     0.345481   
C128     C      0.830100000000     0.121900000000     0.910470000000     0.345187   
C129     C      0.618690000000     0.682330000000     0.909170000000     0.345575   
C130     C      0.620980000000     0.630520000000     0.963850000000     0.345196   
C131     C      0.580170000000     0.630540000000     0.909420000000     0.346384   
C132     C      0.655640000000     0.625720000000     0.906830000000     0.345892   
C133     C      0.874980000000     0.815320000000     0.544350000000     0.347126   
C134     C      0.871090000000     0.768330000000     0.592230000000     0.347593   
C135     C      0.907490000000     0.824220000000     0.608690000000     0.346738   
C136     C      0.838240000000     0.831620000000     0.600780000000     0.34779    
C137     C      0.943840000000     0.604950000000     0.661050000000     0.346313   
C138     C      0.894940000000     0.596570000000     0.707550000000     0.346144   
C139     C      0.886730000000     0.635570000000     0.644090000000     0.346182   
C140     C      0.880150000000     0.567910000000     0.649390000000     0.346049   
C141     C      0.837240000000     0.516020000000     0.881910000000     0.345615   
C142     C      0.785420000000     0.569600000000     0.875810000000     0.345771   
C143     C      0.837290000000     0.573730000000     0.916410000000     0.346244   
C144     C      0.844110000000     0.567500000000     0.841080000000     0.345718   
C145     C      0.945080000000     0.345740000000     0.852820000000     0.3457     
C146     C      0.893380000000     0.349640000000     0.798070000000     0.345708   
C147     C      0.890280000000     0.310710000000     0.853870000000     0.34694    
C148     C      0.889200000000     0.384670000000     0.855930000000     0.345888   
C149     C      0.866860000000     0.323710000000     0.460290000000     0.346152   
C150     C      0.869050000000     0.271100000000     0.407540000000     0.345449   
C151     C      0.831900000000     0.327720000000     0.402390000000     0.346478   
C152     C      0.906750000000     0.324420000000     0.404750000000     0.346822   
C153     C      0.829350000000     0.435490000000     0.629410000000     0.346647   
C154     C      0.781950000000     0.388670000000     0.629260000000     0.346931   
C155     C      0.840160000000     0.372750000000     0.594730000000     0.346529   
C156     C      0.845490000000     0.377500000000     0.663400000000     0.346368   
C157     C      0.287560000000     0.877400000000     0.134580000000     0.345557   
C158     C      0.338120000000     0.930860000000     0.126040000000     0.345822   
C159     C      0.347020000000     0.879880000000     0.167450000000     0.34676    
C160     C      0.339150000000     0.872680000000     0.092490000000     0.346867   
C161     C      0.934860000000     0.100640000000     0.358310000000     0.344041   
C162     C      0.881690000000     0.093910000000     0.306380000000     0.343492   
C163     C      0.880510000000     0.058970000000     0.360690000000     0.346733   
C164     C      0.879730000000     0.134580000000     0.362200000000     0.346457   
C165     C      0.094020000000     0.099490000000     0.810020000000     0.344765   
C166     C      0.042350000000     0.102520000000     0.863770000000     0.345659   
C167     C      0.100170000000     0.067600000000     0.867270000000     0.346376   
C168     C      0.096180000000     0.141730000000     0.864790000000     0.346703   
C169     C      0.111070000000     0.129370000000     0.460220000000     0.344737   
C170     C      0.108310000000     0.179390000000     0.407430000000     0.345472   
C171     C      0.144290000000     0.120240000000     0.400870000000     0.348064   
C172     C      0.070620000000     0.126610000000     0.404210000000     0.349474   
C173     C      0.194140000000     0.079690000000     0.630940000000     0.344714   
C174     C      0.142760000000     0.027000000000     0.635760000000     0.344544   
C175     C      0.138140000000     0.081320000000     0.671610000000     0.34629    
C176     C      0.139810000000     0.083310000000     0.595600000000     0.347226   
C177     C      0.835110000000     0.015440000000     0.130310000000     0.345935   
C178     C      0.781060000000     0.068130000000     0.129300000000     0.34538    
C179     C      0.835250000000     0.067250000000     0.170180000000     0.34598    
C180     C      0.837240000000     0.071640000000     0.094080000000     0.345681   
C181     C      0.615510000000     0.133640000000     0.046480000000     0.347311   
C182     C      0.616790000000     0.181890000000     0.099340000000     0.346389   
C183     C      0.575350000000     0.129920000000     0.103990000000     0.349037   
C184     C      0.647890000000     0.119860000000     0.104500000000     0.348074   
C185     C      0.278660000000     0.070910000000     0.378010000000     0.347587   
C186     C      0.326150000000     0.016750000000     0.376880000000     0.347418   
C187     C      0.338970000000     0.073530000000     0.341650000000     0.348654   
C188     C      0.334440000000     0.073890000000     0.414600000000     0.348346   
C189     C      0.387710000000     0.098470000000     0.206200000000     0.344797   
C190     C      0.440520000000     0.103930000000     0.152350000000     0.344785   
C191     C      0.385840000000     0.063990000000     0.150440000000     0.346815   
C192     C      0.384950000000     0.138660000000     0.150650000000     0.346195   
C193     C      0.344070000000     0.096240000000     0.292550000000    -0.0811973  
C194     C      0.362220000000     0.088530000000     0.286060000000     0.0364791  
C195     C      0.373170000000     0.076920000000     0.299360000000    -0.0804642  
C196     C      0.365510000000     0.072600000000     0.318240000000     0.0709669  
C197     C      0.336820000000     0.091520000000     0.311420000000     0.0713498  
C198     C      0.369090000000     0.091760000000     0.265210000000     0.0362825  
C199     C      0.355450000000     0.091630000000     0.249450000000    -0.0808203  
C200     C      0.361950000000     0.094100000000     0.229880000000     0.0708669  
C201     C      0.395220000000     0.096890000000     0.240890000000     0.0706047  
C202     C      0.389200000000     0.094500000000     0.260720000000    -0.0803637  
C203     C      0.494530000000     0.110010000000     0.152880000000    -0.0806193  
C204     C      0.498590000000     0.111670000000     0.132470000000     0.0363084  
C205     C      0.482920000000     0.109680000000     0.118940000000    -0.0813727  
C206     C      0.463680000000     0.106700000000     0.125880000000     0.0709124  
C207     C      0.475020000000     0.107100000000     0.159340000000     0.0706041  
C208     C      0.518850000000     0.116280000000     0.125200000000     0.0365132  
C209     C      0.521530000000     0.130270000000     0.110170000000    -0.0814224  
C210     C      0.540530000000     0.134610000000     0.103310000000     0.0713371  
C211     C      0.554470000000     0.111530000000     0.125760000000     0.0710369  
C212     C      0.535600000000     0.106920000000     0.133090000000    -0.0808654  
C213     C      0.738390000000     0.100890000000     0.124760000000    -0.0810207  
C214     C      0.722620000000     0.087550000000     0.123530000000     0.0363612  
C215     C      0.726880000000     0.067450000000     0.124780000000    -0.0805391  
C216     C      0.746510000000     0.061150000000     0.126960000000     0.0706254  
C217     C      0.757760000000     0.094100000000     0.126980000000     0.0709349  
C218     C      0.702050000000     0.094760000000     0.120220000000     0.0364006  
C219     C      0.695500000000     0.112120000000     0.129280000000    -0.0810381  
C220     C      0.677040000000     0.119950000000     0.124330000000     0.0711408  
C221     C      0.670690000000     0.093260000000     0.102590000000     0.0709286  
C222     C      0.689160000000     0.085060000000     0.107110000000    -0.0804871  
C223     C      0.120690000000     0.115990000000     0.556610000000    -0.0808627  
C224     C      0.123930000000     0.104630000000     0.539500000000     0.0364279  
C225     C      0.132390000000     0.086010000000     0.541710000000    -0.0814993  
C226     C      0.137490000000     0.079150000000     0.560590000000     0.0712425  
C227     C      0.125810000000     0.108560000000     0.575380000000     0.0707228  
C228     C      0.118850000000     0.112000000000     0.519310000000     0.0361936  
C229     C      0.109740000000     0.099570000000     0.505470000000    -0.0814825  
C230     C      0.106740000000     0.105880000000     0.485940000000     0.0711005  
C231     C      0.120900000000     0.136840000000     0.493520000000     0.0701525  
C232     C      0.124040000000     0.131010000000     0.513280000000    -0.0804196  
C233     C      0.185090000000     0.085420000000     0.394320000000    -0.0804021  
C234     C      0.199290000000     0.097200000000     0.384830000000     0.0362915  
C235     C      0.193830000000     0.116250000000     0.379180000000    -0.0810248  
C236     C      0.175100000000     0.123490000000     0.384050000000     0.071074   
C237     C      0.166400000000     0.093100000000     0.398830000000     0.0705796  
C238     C      0.220030000000     0.090230000000     0.382080000000     0.0364461  
C239     C      0.235930000000     0.103100000000     0.385160000000    -0.0811147  
C240     C      0.255360000000     0.096390000000     0.383480000000     0.0714996  
C241     C      0.243990000000     0.064410000000     0.375640000000     0.0708286  
C242     C      0.224270000000     0.070660000000     0.377160000000    -0.080525   
C243     C      0.093300000000     0.103140000000     0.755470000000    -0.0802757  
C244     C      0.111510000000     0.094470000000     0.750480000000     0.0363349  
C245     C      0.123420000000     0.087270000000     0.765980000000    -0.0809045  
C246     C      0.117320000000     0.089140000000     0.785740000000     0.0710618  
C247     C      0.087520000000     0.104530000000     0.775460000000     0.0707167  
C248     C      0.118150000000     0.092690000000     0.729340000000     0.0364267  
C249     C      0.104630000000     0.088970000000     0.713890000000    -0.0802761  
C250     C      0.111480000000     0.085940000000     0.694430000000     0.0704844  
C251     C      0.144660000000     0.090600000000     0.705040000000     0.0713438  
C252     C      0.138330000000     0.094020000000     0.724520000000    -0.0810435  
C253     C      0.865160000000     0.088220000000     0.210530000000    -0.0805984  
C254     C      0.855270000000     0.081030000000     0.227390000000     0.0363721  
C255     C      0.838440000000     0.069310000000     0.224560000000    -0.0809987  
C256     C      0.831880000000     0.065010000000     0.205330000000     0.0708802  
C257     C      0.858170000000     0.083630000000     0.191450000000     0.0708257  
C258     C      0.862430000000     0.085490000000     0.247860000000     0.0362693  
C259     C      0.882720000000     0.085430000000     0.252420000000    -0.0805002  
C260     C      0.888990000000     0.088610000000     0.272040000000     0.0706165  
C261     C      0.855670000000     0.092370000000     0.282620000000     0.0708283  
C262     C      0.848910000000     0.089300000000     0.263230000000    -0.0810717  
C263     C      0.016600000000     0.123310000000     0.401680000000    -0.0811231  
C264     C      0.013790000000     0.113050000000     0.383810000000     0.0358494  
C265     C      0.030540000000     0.107250000000     0.372940000000    -0.0806703  
C266     C      0.049520000000     0.111710000000     0.380060000000     0.0711753  
C267     C      0.035710000000     0.127550000000     0.408310000000     0.0714262  
C268     C      0.993410000000     0.108630000000     0.376690000000     0.0369842  
C269     C      0.978710000000     0.102900000000     0.390230000000    -0.0814765  
C270     C      0.959310000000     0.100010000000     0.383720000000     0.0710626  
C271     C      0.968600000000     0.107710000000     0.350530000000     0.0705775  
C272     C      0.988230000000     0.110740000000     0.356560000000    -0.0807505  
C273     C      0.337630000000     0.983830000000     0.134840000000    -0.0807258  
C274     C      0.357020000000     0.988930000000     0.129430000000     0.0360676  
C275     C      0.369250000000     0.974460000000     0.121140000000    -0.081279   
C276     C      0.362380000000     0.955240000000     0.119370000000     0.0709114  
C277     C      0.331250000000     0.964420000000     0.132890000000     0.0711735  
C278     C      0.364900000000     0.008830000000     0.133690000000     0.0367657  
C279     C      0.353380000000     0.025640000000     0.130490000000    -0.0810113  
C280     C      0.360760000000     0.044080000000     0.135790000000     0.0711164  
C281     C      0.390710000000     0.029670000000     0.147120000000     0.0710917  
C282     C      0.383850000000     0.011070000000     0.141910000000    -0.0808013  
C283     C      0.872050000000     0.176100000000     0.395990000000    -0.0800837  
C284     C      0.870250000000     0.191680000000     0.382410000000     0.0362572  
C285     C      0.869780000000     0.187240000000     0.362010000000    -0.0809465  
C286     C      0.872360000000     0.167960000000     0.355580000000     0.0710996  
C287     C      0.874270000000     0.156870000000     0.389010000000     0.0705872  
C288     C      0.869800000000     0.212490000000     0.389260000000     0.0364265  
C289     C      0.860420000000     0.217960000000     0.407080000000    -0.0803548  
C290     C      0.860440000000     0.237630000000     0.413120000000     0.0708577  
C291     C      0.878650000000     0.246630000000     0.384330000000     0.0711534  
C292     C      0.879120000000     0.227170000000     0.377990000000    -0.08091    
C293     C      0.860870000000     0.321860000000     0.514570000000    -0.0808183  
C294     C      0.860630000000     0.341870000000     0.519390000000     0.0363017  
C295     C      0.863290000000     0.355550000000     0.504040000000    -0.0810008  
C296     C      0.865640000000     0.349170000000     0.484420000000     0.0708615  
C297     C      0.863390000000     0.315980000000     0.494750000000     0.0706851  
C298     C      0.856720000000     0.348620000000     0.540090000000     0.036425   
C299     C      0.841740000000     0.339940000000     0.551550000000    -0.0807879  
C300     C      0.836810000000     0.347820000000     0.570140000000     0.0708368  
C301     C      0.861830000000     0.372030000000     0.566780000000     0.0709747  
C302     C      0.867080000000     0.364590000000     0.548120000000    -0.0810997  
C303     C      0.862000000000     0.353240000000     0.753760000000    -0.0809518  
C304     C      0.876060000000     0.356310000000     0.738710000000     0.0362525  
C305     C      0.896190000000     0.356310000000     0.743910000000    -0.0806613  
C306     C      0.901800000000     0.353600000000     0.763800000000     0.0705259  
C307     C      0.868110000000     0.350730000000     0.773460000000     0.0708455  
C308     C      0.869530000000     0.360400000000     0.717960000000     0.0363765  
C309     C      0.853670000000     0.350060000000     0.709520000000    -0.0809744  
C310     C      0.846290000000     0.355500000000     0.690870000000     0.0709771  
C311     C      0.870430000000     0.380650000000     0.688280000000     0.0708718  
C312     C      0.878230000000     0.375540000000     0.706870000000    -0.080636   
C313     C      0.838510000000     0.463260000000     0.871890000000    -0.0805629  
C314     C      0.857820000000     0.458500000000     0.877900000000     0.0364077  
C315     C      0.869360000000     0.473110000000     0.886910000000    -0.0812071  
C316     C      0.861940000000     0.492130000000     0.888800000000     0.0709408  
C317     C      0.831540000000     0.482460000000     0.874040000000     0.0709998  
C318     C      0.866360000000     0.438850000000     0.873550000000     0.0363047  
C319     C      0.854980000000     0.421740000000     0.875440000000    -0.0807385  
C320     C      0.863000000000     0.403610000000     0.869930000000     0.0707098  
C321     C      0.893340000000     0.418870000000     0.861090000000     0.0707652  
C322     C      0.885830000000     0.437170000000     0.866490000000    -0.0808627  
C323     C      0.888670000000     0.571870000000     0.755520000000    -0.0815189  
C324     C      0.878120000000     0.585990000000     0.766350000000     0.0363898  
C325     C      0.874680000000     0.604310000000     0.757570000000    -0.0807398  
C326     C      0.880920000000     0.607830000000     0.738020000000     0.0710404  
C327     C      0.894850000000     0.575940000000     0.736100000000     0.0709406  
C328     C      0.869700000000     0.581160000000     0.786180000000     0.0363911  
C329     C      0.859740000000     0.563380000000     0.789070000000    -0.0813947  
C330     C      0.851240000000     0.559130000000     0.807510000000     0.0709909  
C331     C      0.862510000000     0.589490000000     0.820560000000     0.0708513  
C332     C      0.871000000000     0.594330000000     0.802170000000    -0.0809077  
C333     C      0.872480000000     0.518860000000     0.628770000000    -0.0806255  
C334     C      0.853200000000     0.514650000000     0.635280000000     0.0362918  
C335     C      0.842590000000     0.529370000000     0.645230000000    -0.0809636  
C336     C      0.851560000000     0.547460000000     0.649130000000     0.0706251  
C337     C      0.881010000000     0.537040000000     0.633000000000     0.0711852  
C338     C      0.844860000000     0.494610000000     0.632820000000     0.0364965  
C339     C      0.848160000000     0.483880000000     0.615320000000    -0.081087   
C340     C      0.842190000000     0.464300000000     0.614160000000     0.0712644  
C341     C      0.829020000000     0.465850000000     0.646890000000     0.0710654  
C342     C      0.834740000000     0.485490000000     0.648540000000    -0.0807331  
C343     C      0.887920000000     0.717560000000     0.597420000000    -0.080655   
C344     C      0.872350000000     0.709260000000     0.608400000000     0.0364405  
C345     C      0.855620000000     0.720830000000     0.612320000000    -0.080967   
C346     C      0.855140000000     0.740400000000     0.606150000000     0.0713101  
C347     C      0.886940000000     0.737180000000     0.591480000000     0.0713927  
C348     C      0.874220000000     0.689190000000     0.616910000000     0.0363398  
C349     C      0.883310000000     0.674040000000     0.606150000000    -0.0808431  
C350     C      0.886730000000     0.655880000000     0.615230000000     0.0705393  
C351     C      0.871690000000     0.667070000000     0.645080000000     0.0710188  
C352     C      0.868010000000     0.685350000000     0.636470000000    -0.0806347  
C353     C      0.691230000000     0.591490000000     0.884580000000    -0.0807231  
C354     C      0.709150000000     0.601420000000     0.887700000000     0.0363092  
C355     C      0.708600000000     0.619900000000     0.896820000000    -0.0810352  
C356     C      0.690550000000     0.627880000000     0.902890000000     0.0708144  
C357     C      0.673370000000     0.599970000000     0.890760000000     0.0706624  
C358     C      0.728470000000     0.592370000000     0.882310000000     0.0363673  
C359     C      0.732290000000     0.572580000000     0.886460000000    -0.0806194  
C360     C      0.751290000000     0.564930000000     0.883430000000     0.0710219  
C361     C      0.762480000000     0.595660000000     0.871270000000     0.0707897  
C362     C      0.743710000000     0.603770000000     0.874130000000    -0.0812573  
C363     C      0.868110000000     0.092410000000     0.004820000000    -0.0808322  
C364     C      0.860600000000     0.104210000000     0.020150000000     0.0360633  
C365     C      0.857140000000     0.124110000000     0.016200000000    -0.0800718  
C366     C      0.860290000000     0.131530000000     0.997010000000     0.0703986  
C367     C      0.871090000000     0.100290000000     0.985870000000     0.070298   
C368     C      0.855310000000     0.095470000000     0.039730000000     0.0364924  
C369     C      0.845730000000     0.077260000000     0.040570000000    -0.0811916  
C370     C      0.840030000000     0.069440000000     0.058890000000     0.0709722  
C371     C      0.853340000000     0.097010000000     0.075790000000     0.0708555  
C372     C      0.859180000000     0.105340000000     0.057640000000    -0.0808386  
C373     C      0.864790000000     0.220480000000     0.872910000000    -0.0810258  
C374     C      0.870660000000     0.236090000000     0.885150000000     0.0362456  
C375     C      0.873470000000     0.232450000000     0.905530000000    -0.0804142  
C376     C      0.871160000000     0.213460000000     0.913050000000     0.0707885  
C377     C      0.862640000000     0.201700000000     0.880910000000     0.0707634  
C378     C      0.874780000000     0.255770000000     0.876520000000     0.0365099  
C379     C      0.884650000000     0.257510000000     0.858220000000    -0.0810606  
C380     C      0.889380000000     0.276010000000     0.850700000000     0.0712608  
C381     C      0.874490000000     0.291270000000     0.878720000000     0.0710335  
C382     C      0.869550000000     0.272960000000     0.886700000000    -0.0807912  
C383     C      0.999160000000     0.107490000000     0.896220000000    -0.0804161  
C384     C      0.983680000000     0.108510000000     0.882340000000     0.0358494  
C385     C      0.988170000000     0.105980000000     0.862090000000    -0.0796071  
C386     C      0.007870000000     0.103390000000     0.856120000000     0.0699642  
C387     C      0.018620000000     0.104940000000     0.889750000000     0.0702175  
C388     C      0.963220000000     0.113250000000     0.888980000000     0.036718   
C389     C      0.946630000000     0.104040000000     0.880560000000    -0.080825   
C390     C      0.927570000000     0.109020000000     0.887100000000     0.0709181  
C391     C      0.940990000000     0.132040000000     0.909900000000     0.0711851  
C392     C      0.960160000000     0.127430000000     0.903770000000    -0.0814155  
C393     C      0.526090000000     0.628660000000     0.906700000000    -0.0813102  
C394     C      0.523100000000     0.616870000000     0.889850000000     0.0364191  
C395     C      0.539740000000     0.609510000000     0.879830000000    -0.0808732  
C396     C      0.558780000000     0.614050000000     0.886680000000     0.070985   
C397     C      0.545270000000     0.632890000000     0.913110000000     0.0710802  
C398     C      0.502670000000     0.612670000000     0.882730000000     0.0363634  
C399     C      0.487360000000     0.609160000000     0.896380000000    -0.0814394  
C400     C      0.467970000000     0.606700000000     0.889660000000     0.0711435  
C401     C      0.478460000000     0.610310000000     0.856120000000     0.0709079  
C402     C      0.498070000000     0.612890000000     0.862350000000    -0.0807187  
C403     C      0.375930000000     0.847880000000     0.007190000000    -0.0802342  
C404     C      0.358560000000     0.841790000000     0.016790000000     0.0360178  
C405     C      0.345390000000     0.829590000000     0.006470000000    -0.0808728  
C406     C      0.349330000000     0.824380000000     0.986740000000     0.070302   
C407     C      0.379320000000     0.842530000000     0.987370000000     0.0704467  
C408     C      0.353520000000     0.849170000000     0.036950000000     0.0367321  
C409     C      0.367670000000     0.849740000000     0.052230000000    -0.081255   
C410     C      0.362570000000     0.857420000000     0.070890000000     0.0711472  
C411     C      0.329980000000     0.864120000000     0.059500000000     0.0713172  
C412     C      0.334480000000     0.856370000000     0.040820000000    -0.0816877  
C413     C      0.397550000000     0.731950000000     0.901870000000    -0.0818541  
C414     C      0.381090000000     0.720810000000     0.896160000000     0.0364398  
C415     C      0.362310000000     0.729510000000     0.896650000000    -0.0810974  
C416     C      0.360470000000     0.749310000000     0.901810000000     0.0711725  
C417     C      0.395150000000     0.751580000000     0.907200000000     0.0710463  
C418     C      0.383820000000     0.700670000000     0.888410000000     0.0363951  
C419     C      0.397990000000     0.697150000000     0.873630000000    -0.0819064  
C420     C      0.400680000000     0.678240000000     0.866280000000     0.0713394  
C421     C      0.375770000000     0.666030000000     0.887950000000     0.0707958  
C422     C      0.372450000000     0.684930000000     0.895440000000    -0.0810553  
C423     C      0.373270000000     0.476730000000     0.870630000000    -0.0812511  
C424     C      0.362190000000     0.491390000000     0.880140000000     0.0365587  
C425     C      0.344780000000     0.485910000000     0.890140000000    -0.0806524  
C426     C      0.338960000000     0.466200000000     0.890520000000     0.0711341  
C427     C      0.367130000000     0.457240000000     0.871460000000     0.0713944  
C428     C      0.368800000000     0.512210000000     0.879150000000     0.0363223  
C429     C      0.389060000000     0.516760000000     0.879410000000    -0.081333   
C430     C      0.395330000000     0.535940000000     0.876000000000     0.0713001  
C431     C      0.362010000000     0.546770000000     0.873730000000     0.0704631  
C432     C      0.355190000000     0.527610000000     0.876820000000    -0.0802016  
C433     C      0.151560000000     0.988940000000     0.876800000000    -0.080695   
C434     C      0.134450000000     0.994600000000     0.887140000000     0.0358469  
C435     C      0.125270000000     0.980930000000     0.899690000000    -0.0811626  
C436     C      0.132650000000     0.961830000000     0.900930000000     0.0710838  
C437     C      0.158430000000     0.969650000000     0.878240000000     0.0710205  
C438     C      0.125360000000     0.014110000000     0.883610000000     0.0369904  
C439     C      0.136940000000     0.031140000000     0.882830000000    -0.0813231  
C440     C      0.128160000000     0.049100000000     0.877960000000     0.0712326  
C441     C      0.096770000000     0.033740000000     0.874790000000     0.0713615  
C442     C      0.105000000000     0.015630000000     0.879860000000    -0.0814112  
C443     C      0.253590000000     0.875530000000     0.865850000000    -0.0809193  
C444     C      0.265010000000     0.878720000000     0.883000000000     0.0365268  
C445     C      0.256130000000     0.888270000000     0.899220000000    -0.0806623  
C446     C      0.236130000000     0.893480000000     0.898420000000     0.0715085  
C447     C      0.233600000000     0.880900000000     0.865580000000     0.0712972  
C448     C      0.285500000000     0.870780000000     0.884670000000     0.0363096  
C449     C      0.290090000000     0.852160000000     0.877090000000    -0.0804585  
C450     C      0.308560000000     0.843750000000     0.880980000000     0.0711613  
C451     C      0.318550000000     0.872090000000     0.898810000000     0.0706554  
C452     C      0.300240000000     0.880970000000     0.895160000000    -0.0808974  
C453     C      0.344110000000     0.584080000000     0.729560000000    -0.0812736  
C454     C      0.363050000000     0.592210000000     0.731920000000     0.0365585  
C455     C      0.374350000000     0.596020000000     0.714840000000    -0.0810111  
C456     C      0.366710000000     0.591590000000     0.695990000000     0.0713125  
C457     C      0.336980000000     0.579770000000     0.710540000000     0.0714034  
C458     C      0.370960000000     0.596320000000     0.752160000000     0.0362227  
C459     C      0.358670000000     0.604250000000     0.766930000000    -0.0811748  
C460     C      0.365880000000     0.606930000000     0.786220000000     0.0708193  
C461     C      0.397350000000     0.594600000000     0.776640000000     0.0704666  
C462     C      0.390610000000     0.591750000000     0.757140000000    -0.0805698  
C463     C      0.379620000000     0.606300000000     0.513880000000    -0.0812317  
C464     C      0.368020000000     0.616340000000     0.527890000000     0.0363781  
C465     C      0.359510000000     0.634280000000     0.522330000000    -0.0807853  
C466     C      0.361630000000     0.641120000000     0.502810000000     0.0712853  
C467     C      0.381430000000     0.613570000000     0.494520000000     0.070905   
C468     C      0.363450000000     0.607340000000     0.547540000000     0.0364525  
C469     C      0.358820000000     0.587350000000     0.548800000000    -0.0810966  
C470     C      0.352850000000     0.579280000000     0.566940000000     0.0709879  
C471     C      0.356530000000     0.610110000000     0.582880000000     0.0707656  
C472     C      0.362480000000     0.618710000000     0.564920000000    -0.0810087  
C473     C      0.290060000000     0.599050000000     0.388480000000    -0.0808945  
C474     C      0.275500000000     0.596780000000     0.403210000000     0.0365179  
C475     C      0.279570000000     0.603540000000     0.422490000000    -0.0813774  
C476     C      0.297680000000     0.612490000000     0.426640000000     0.0713995  
C477     C      0.308150000000     0.607970000000     0.393200000000     0.0708561  
C478     C      0.255790000000     0.588220000000     0.398540000000     0.0363099  
C479     C      0.245520000000     0.593770000000     0.381300000000    -0.0807456  
C480     C      0.226060000000     0.587370000000     0.378340000000     0.0709444  
C481     C      0.227070000000     0.569260000000     0.408500000000     0.0707124  
C482     C      0.246500000000     0.575430000000     0.411970000000    -0.081133   
C483     C      0.132600000000     0.622870000000     0.460570000000    -0.0808547  
C484     C      0.123610000000     0.612060000000     0.475880000000     0.0363632  
C485     C      0.118570000000     0.592460000000     0.472130000000    -0.0805998  
C486     C      0.123160000000     0.583930000000     0.453780000000     0.0711464  
C487     C      0.137020000000     0.613850000000     0.442380000000     0.0706093  
C488     C      0.120570000000     0.620710000000     0.496030000000     0.0365869  
C489     C      0.135010000000     0.632860000000     0.504600000000    -0.0807612  
C490     C      0.132940000000     0.639190000000     0.524300000000     0.0714789  
C491     C      0.102270000000     0.622440000000     0.527070000000     0.0714975  
C492     C      0.103820000000     0.615910000000     0.507400000000    -0.0810706  
C493     C      0.993880000000     0.597480000000     0.641350000000    -0.0788522  
C494     C      0.003390000000     0.614630000000     0.647720000000     0.0345655  
C495     C      0.992950000000     0.627630000000     0.660030000000    -0.0800629  
C496     C      0.973230000000     0.623780000000     0.664970000000     0.0703933  
C497     C      0.974090000000     0.594140000000     0.646480000000     0.0703206  
C498     C      0.023540000000     0.619650000000     0.640430000000     0.0370555  
C499     C      0.038600000000     0.605520000000     0.639400000000    -0.0812699  
C500     C      0.057160000000     0.610550000000     0.631590000000     0.0709523  
C501     C      0.046170000000     0.643100000000     0.625770000000     0.0714808  
C502     C      0.027590000000     0.638650000000     0.633630000000    -0.0818226  
C503     C      0.197320000000     0.615160000000     0.638520000000    -0.081036   
C504     C      0.205410000000     0.599790000000     0.627290000000     0.0363318  
C505     C      0.193840000000     0.591440000000     0.612160000000    -0.0807019  
C506     C      0.175110000000     0.599140000000     0.607900000000     0.0708623  
C507     C      0.178540000000     0.622460000000     0.633890000000     0.0708763  
C508     C      0.226240000000     0.593410000000     0.630480000000     0.0363237  
C509     C      0.241180000000     0.607360000000     0.633530000000    -0.0810643  
C510     C      0.260870000000     0.601420000000     0.635370000000     0.0709519  
C511     C      0.251480000000     0.568100000000     0.631710000000     0.0706234  
C512     C      0.231580000000     0.573550000000     0.629690000000    -0.0807948  
C513     C      0.733470000000     0.369050000000     0.643270000000    -0.0811599  
C514     C      0.722520000000     0.372340000000     0.625840000000     0.0363212  
C515     C      0.731410000000     0.382930000000     0.610320000000    -0.0806557  
C516     C      0.751130000000     0.388980000000     0.612010000000     0.0710596  
C517     C      0.753110000000     0.375380000000     0.644480000000     0.0712351  
C518     C      0.702630000000     0.363360000000     0.623180000000     0.0364607  
C519     C      0.699370000000     0.343850000000     0.628850000000    -0.0810214  
C520     C      0.681360000000     0.334780000000     0.624460000000     0.0713118  
C521     C      0.669240000000     0.364100000000     0.609840000000     0.0706439  
C522     C      0.687190000000     0.373600000000     0.613860000000    -0.081036   
C523     C      0.358840000000     0.352340000000     0.750830000000    -0.0809198  
C524     C      0.371990000000     0.359140000000     0.765440000000     0.0361574  
C525     C      0.391670000000     0.362920000000     0.759880000000    -0.0802213  
C526     C      0.397580000000     0.360460000000     0.740040000000     0.0703795  
C527     C      0.365190000000     0.350160000000     0.731170000000     0.0707833  
C528     C      0.364900000000     0.363080000000     0.786080000000     0.036447   
C529     C      0.346140000000     0.371340000000     0.789260000000    -0.080967   
C530     C      0.339810000000     0.375640000000     0.808570000000     0.0708511  
C531     C      0.370020000000     0.363630000000     0.821880000000     0.0709434  
C532     C      0.376830000000     0.359090000000     0.802710000000    -0.0807114  
C533     C      0.485010000000     0.344450000000     0.621330000000    -0.0814133  
C534     C      0.500010000000     0.340240000000     0.635100000000     0.0363002  
C535     C      0.495090000000     0.339400000000     0.655380000000    -0.0806618  
C536     C      0.475420000000     0.342200000000     0.661390000000     0.0704884  
C537     C      0.465600000000     0.347230000000     0.627830000000     0.0708365  
C538     C      0.520470000000     0.336050000000     0.628070000000     0.0363738  
C539     C      0.523470000000     0.324220000000     0.611280000000    -0.081467   
C540     C      0.542640000000     0.320360000000     0.604620000000     0.0711519  
C541     C      0.556130000000     0.339690000000     0.630700000000     0.0706816  
C542     C      0.537080000000     0.343760000000     0.637870000000    -0.0807126  
C543     C      0.351520000000     0.430460000000     0.642230000000    -0.0803651  
C544     C      0.364800000000     0.446300000000     0.641540000000     0.0364133  
C545     C      0.385150000000     0.442290000000     0.642630000000    -0.0811876  
C546     C      0.391740000000     0.423120000000     0.645500000000     0.0711863  
C547     C      0.358680000000     0.411350000000     0.644830000000     0.0706839  
C548     C      0.357650000000     0.466960000000     0.640580000000     0.0363709  
C549     C      0.340820000000     0.472180000000     0.629470000000    -0.0804267  
C550     C      0.334550000000     0.491760000000     0.628930000000     0.070921   
C551     C      0.361120000000     0.501110000000     0.650020000000     0.0710519  
C552     C      0.367650000000     0.481750000000     0.651050000000    -0.0809455  
C553     C      0.375580000000     0.844660000000     0.251990000000    -0.0808936  
C554     C      0.380900000000     0.862090000000     0.242350000000     0.0363862  
C555     C      0.392740000000     0.875640000000     0.252570000000    -0.0814645  
C556     C      0.398250000000     0.872020000000     0.272280000000     0.0708325  
C557     C      0.381200000000     0.841590000000     0.271800000000     0.071015   
C558     C      0.372900000000     0.866800000000     0.222320000000     0.0365524  
C559     C      0.372650000000     0.852810000000     0.207020000000    -0.0811769  
C560     C      0.364190000000     0.857480000000     0.188580000000     0.0710689  
C561     C      0.356110000000     0.889360000000     0.200210000000     0.0711343  
C562     C      0.364640000000     0.885280000000     0.218670000000    -0.0815107  
C563     C      0.489540000000     0.821460000000     0.361200000000    -0.0816238  
C564     C      0.501030000000     0.837070000000     0.368300000000     0.0363206  
C565     C      0.492860000000     0.855950000000     0.368270000000    -0.0808964  
C566     C      0.473250000000     0.858710000000     0.362090000000     0.0708932  
C567     C      0.470120000000     0.824780000000     0.354900000000     0.0710122  
C568     C      0.520970000000     0.833370000000     0.376770000000     0.0363371  
C569     C      0.523660000000     0.818210000000     0.390560000000    -0.0815782  
C570     C      0.542380000000     0.814720000000     0.398590000000     0.0709377  
C571     C      0.556000000000     0.840750000000     0.379540000000     0.070737   
C572     C      0.537340000000     0.844860000000     0.371410000000    -0.080937   
C573     C      0.350940000000     0.731790000000     0.396180000000    -0.0810997  
C574     C      0.366740000000     0.743880000000     0.401950000000     0.0365327  
C575     C      0.380870000000     0.736280000000     0.415200000000    -0.0806561  
C576     C      0.379490000000     0.716820000000     0.421610000000     0.0713588  
C577     C      0.350070000000     0.712390000000     0.402820000000     0.0714504  
C578     C      0.369310000000     0.763730000000     0.393060000000     0.0362693  
C579     C      0.365380000000     0.766840000000     0.372790000000    -0.0806011  
C580     C      0.369660000000     0.784930000000     0.364060000000     0.0712154  
C581     C      0.380940000000     0.797360000000     0.395050000000     0.0706463  
C582     C      0.376820000000     0.779420000000     0.404290000000    -0.0807198  
C583     C      0.347130000000     0.969210000000     0.390840000000    -0.0811284  
C584     C      0.343140000000     0.957950000000     0.373830000000     0.0364186  
C585     C      0.331920000000     0.966480000000     0.358490000000    -0.0804457  
C586     C      0.325720000000     0.986000000000     0.360040000000     0.0708677  
C587     C      0.340830000000     0.988690000000     0.391820000000     0.0711636  
C588     C      0.351680000000     0.937910000000     0.371570000000     0.0363075  
C589     C      0.370940000000     0.933860000000     0.378280000000    -0.0805722  
C590     C      0.379460000000     0.915540000000     0.374670000000     0.0711381  
C591     C      0.350200000000     0.904770000000     0.358470000000     0.0705527  
C592     C      0.341170000000     0.922940000000     0.361880000000    -0.080786   
C593     C      0.840480000000     0.974300000000     0.384390000000    -0.0803415  
C594     C      0.854570000000     0.980800000000     0.370510000000     0.0360243  
C595     C      0.862320000000     0.967180000000     0.356940000000    -0.0812327  
C596     C      0.856530000000     0.947600000000     0.357810000000     0.0712203  
C597     C      0.834920000000     0.954500000000     0.384790000000     0.0708441  
C598     C      0.861470000000     0.001520000000     0.370030000000     0.0366677  
C599     C      0.848290000000     0.017250000000     0.372540000000    -0.0804856  
C600     C      0.855030000000     0.036550000000     0.370150000000     0.0707509  
C601     C      0.887580000000     0.025070000000     0.363730000000     0.0711235  
C602     C      0.881420000000     0.005720000000     0.366160000000    -0.0809866  
C603     C      0.745270000000     0.837440000000     0.378990000000    -0.0814691  
C604     C      0.730210000000     0.850930000000     0.383260000000     0.0363009  
C605     C      0.735040000000     0.870920000000     0.383980000000    -0.0804507  
C606     C      0.754710000000     0.876890000000     0.381240000000     0.0704455  
C607     C      0.764690000000     0.843890000000     0.376340000000     0.0711202  
C608     C      0.709880000000     0.843950000000     0.388000000000     0.0363557  
C609     C      0.693020000000     0.853690000000     0.380850000000    -0.0806487  
C610     C      0.674100000000     0.846790000000     0.385850000000     0.0705685  
C611     C      0.688240000000     0.821010000000     0.404860000000     0.0709611  
C612     C      0.707260000000     0.827420000000     0.400110000000    -0.0813118  
C613     C      0.866820000000     0.860050000000     0.461500000000    -0.0809372  
C614     C      0.866890000000     0.839710000000     0.464480000000     0.0363948  
C615     C      0.862010000000     0.827510000000     0.448410000000    -0.0812251  
C616     C      0.856580000000     0.835730000000     0.430120000000     0.0708302  
C617     C      0.861160000000     0.867770000000     0.443090000000     0.0708734  
C618     C      0.870730000000     0.831490000000     0.484620000000     0.0364666  
C619     C      0.885710000000     0.839220000000     0.496750000000    -0.0812495  
C620     C      0.887520000000     0.832950000000     0.516490000000     0.0713091  
C621     C      0.860580000000     0.810990000000     0.512300000000     0.0712305  
C622     C      0.858440000000     0.816820000000     0.492450000000    -0.0807834  
C623     C      0.618070000000     0.235560000000     0.096020000000    -0.080985   
C624     C      0.616970000000     0.240810000000     0.116200000000     0.0365815  
C625     C      0.616580000000     0.225850000000     0.130510000000    -0.0812358  
C626     C      0.616870000000     0.206270000000     0.124570000000     0.0713019  
C627     C      0.618390000000     0.215740000000     0.090590000000     0.0709582  
C628     C      0.615110000000     0.261650000000     0.122480000000     0.0363727  
C629     C      0.624520000000     0.268380000000     0.139810000000    -0.0810733  
C630     C      0.620450000000     0.287130000000     0.147070000000     0.0712561  
C631     C      0.598970000000     0.293290000000     0.119800000000     0.0707856  
C632     C      0.602670000000     0.274580000000     0.112130000000    -0.0806355  
C633     C      0.636840000000     0.468500000000     0.115700000000    -0.0810583  
C634     C      0.641200000000     0.457190000000     0.132590000000     0.0365323  
C635     C      0.651980000000     0.465900000000     0.148100000000    -0.0807916  
C636     C      0.657260000000     0.485670000000     0.146950000000     0.0713981  
C637     C      0.642330000000     0.488250000000     0.115060000000     0.0713042  
C638     C      0.633160000000     0.437000000000     0.134810000000     0.0364935  
C639     C      0.613690000000     0.432780000000     0.128910000000    -0.0807382  
C640     C      0.605380000000     0.414540000000     0.133290000000     0.0712889  
C641     C      0.635390000000     0.404100000000     0.148320000000     0.0708082  
C642     C      0.644190000000     0.422220000000     0.144180000000    -0.0811346  
C643     C      0.621560000000     0.598970000000     0.007950000000    -0.0803174  
C644     C      0.626070000000     0.612430000000     0.023080000000     0.0360088  
C645     C      0.628180000000     0.632260000000     0.017960000000    -0.0801032  
C646     C      0.626140000000     0.638140000000     0.998100000000     0.0701634  
C647     C      0.619650000000     0.605350000000     0.988280000000     0.0703855  
C648     C      0.629510000000     0.605530000000     0.043830000000     0.0366229  
C649     C      0.617890000000     0.590550000000     0.052090000000    -0.0809145  
C650     C      0.622660000000     0.582810000000     0.070770000000     0.0709655  
C651     C      0.649590000000     0.604970000000     0.073770000000     0.0710514  
C652     C      0.645230000000     0.613040000000     0.055140000000    -0.0808207  
C653     C      0.742990000000     0.349210000000     0.371290000000    -0.0812108  
C654     C      0.757880000000     0.360230000000     0.380610000000     0.036358   
C655     C      0.753280000000     0.379230000000     0.387130000000    -0.0805188  
C656     C      0.733950000000     0.386380000000     0.385190000000     0.0710581  
C657     C      0.723850000000     0.356800000000     0.369620000000     0.0709179  
C658     C      0.777600000000     0.351410000000     0.384820000000     0.0363142  
C659     C      0.778990000000     0.331970000000     0.391460000000    -0.0809886  
C660     C      0.797340000000     0.324190000000     0.396830000000     0.0708285  
C661     C      0.813240000000     0.354160000000     0.388700000000     0.0706789  
C662     C      0.795060000000     0.362460000000     0.383250000000    -0.0806962  
C663     C      0.621600000000     0.346570000000     0.457160000000    -0.0809674  
C664     C      0.635540000000     0.346460000000     0.472640000000     0.0363708  
C665     C      0.653960000000     0.355340000000     0.469430000000    -0.0813901  
C666     C      0.658030000000     0.364290000000     0.451190000000     0.0708932  
C667     C      0.626280000000     0.355440000000     0.438940000000     0.0707772  
C668     C      0.630790000000     0.337860000000     0.492380000000     0.0363883  
C669     C      0.612950000000     0.342400000000     0.501970000000    -0.0810191  
C670     C      0.609620000000     0.335900000000     0.521440000000     0.0711291  
C671     C      0.640650000000     0.319550000000     0.521690000000     0.0710008  
C672     C      0.644570000000     0.326010000000     0.502330000000    -0.0814528  
C673     C      0.613880000000     0.356300000000     0.304180000000    -0.0809225  
C674     C      0.615990000000     0.369340000000     0.288170000000     0.0364205  
C675     C      0.626820000000     0.386610000000     0.291130000000    -0.0812546  
C676     C      0.635260000000     0.390530000000     0.309670000000     0.0710458  
C677     C      0.622410000000     0.360770000000     0.322650000000     0.0708696  
C678     C      0.607510000000     0.364920000000     0.268250000000     0.0363362  
C679     C      0.609540000000     0.346270000000     0.259740000000    -0.0806942  
C680     C      0.603370000000     0.343030000000     0.240120000000     0.0710111  
C681     C      0.592230000000     0.375930000000     0.237550000000     0.0709842  
C682     C      0.598320000000     0.379700000000     0.257060000000    -0.0813191  
C683     C      0.444510000000     0.629940000000     0.374000000000    -0.080849   
C684     C      0.454240000000     0.612870000000     0.380280000000     0.0363803  
C685     C      0.444800000000     0.600780000000     0.394250000000    -0.0810707  
C686     C      0.426410000000     0.606200000000     0.402090000000     0.0710179  
C687     C      0.426180000000     0.634970000000     0.382230000000     0.0710063  
C688     C      0.474590000000     0.608340000000     0.373150000000     0.0363626  
C689     C      0.479900000000     0.611170000000     0.353160000000    -0.0809618  
C690     C      0.499490000000     0.608080000000     0.347100000000     0.070664   
C691     C      0.508600000000     0.599190000000     0.380030000000     0.0708701  
C692     C      0.489160000000     0.602020000000     0.386560000000    -0.080957   
C693     C      0.605670000000     0.570410000000     0.211170000000    -0.0806847  
C694     C      0.612600000000     0.586440000000     0.222220000000     0.0364243  
C695     C      0.627210000000     0.598460000000     0.213740000000    -0.0809202  
C696     C      0.635090000000     0.593860000000     0.195050000000     0.0710375  
C697     C      0.613860000000     0.566260000000     0.192510000000     0.0709321  
C698     C      0.605390000000     0.589970000000     0.242880000000     0.0364183  
C699     C      0.585450000000     0.587050000000     0.247970000000    -0.0808343  
C700     C      0.579290000000     0.589370000000     0.267740000000     0.0708272  
C701     C      0.612000000000     0.597720000000     0.277500000000     0.0709016  
C702     C      0.618660000000     0.595530000000     0.257930000000    -0.0809547  
C703     C      0.595770000000     0.509670000000     0.366740000000    -0.0810818  
C704     C      0.614480000000     0.508740000000     0.375740000000     0.0363754  
C705     C      0.624670000000     0.526310000000     0.379300000000    -0.0807752  
C706     C      0.616220000000     0.544200000000     0.373640000000     0.0707924  
C707     C      0.587830000000     0.527760000000     0.361190000000     0.0709464  
C708     C      0.623520000000     0.489410000000     0.380510000000     0.0362954  
C709     C      0.611960000000     0.474180000000     0.388340000000    -0.0812187  
C710     C      0.620050000000     0.455480000000     0.390620000000     0.0708168  
C711     C      0.651080000000     0.466680000000     0.378540000000     0.070861   
C712     C      0.643460000000     0.485600000000     0.376110000000    -0.0805101  
C713     C      0.593080000000     0.690040000000     0.359630000000    -0.081096   
C714     C      0.603030000000     0.692420000000     0.377800000000     0.0363463  
C715     C      0.607910000000     0.675620000000     0.388820000000    -0.0808279  
C716     C      0.602720000000     0.657050000000     0.381650000000     0.0708402  
C717     C      0.588110000000     0.671310000000     0.352940000000     0.0708351  
C718     C      0.607730000000     0.712410000000     0.385300000000     0.0363534  
C719     C      0.614000000000     0.727130000000     0.372160000000    -0.0812739  
C720     C      0.616730000000     0.746250000000     0.379040000000     0.0709345  
C721     C      0.608030000000     0.736540000000     0.411840000000     0.0709264  
C722     C      0.605120000000     0.717240000000     0.405440000000    -0.0806544  
C723     C      0.866830000000     0.838850000000     0.247130000000    -0.0813056  
C724     C      0.876890000000     0.851010000000     0.260550000000     0.036357   
C725     C      0.894110000000     0.860580000000     0.254090000000    -0.0808335  
C726     C      0.900440000000     0.858470000000     0.234350000000     0.0707507  
C727     C      0.873620000000     0.836980000000     0.227580000000     0.0711598  
C728     C      0.868820000000     0.854490000000     0.280830000000     0.0366215  
C729     C      0.848540000000     0.858000000000     0.283490000000    -0.0814145  
C730     C      0.841140000000     0.862130000000     0.302440000000     0.0716715  
C731     C      0.873280000000     0.858880000000     0.316390000000     0.0714385  
C732     C      0.881230000000     0.854870000000     0.297560000000    -0.0812392  
C733     C      0.881640000000     0.931960000000     0.127100000000    -0.0809198  
C734     C      0.862420000000     0.936900000000     0.133280000000     0.0363249  
C735     C      0.850680000000     0.922210000000     0.141950000000    -0.0803529  
C736     C      0.858530000000     0.903470000000     0.145080000000     0.0705476  
C737     C      0.889070000000     0.913190000000     0.130650000000     0.0710492  
C738     C      0.855180000000     0.957480000000     0.131720000000     0.03631    
C739     C      0.868140000000     0.973200000000     0.135170000000    -0.0807502  
C740     C      0.861190000000     0.992440000000     0.134370000000     0.0705304  
C741     C      0.828780000000     0.981200000000     0.126900000000     0.0707505  
C742     C      0.835280000000     0.961710000000     0.127440000000    -0.0804816  
C743     C      0.494490000000     0.865950000000     0.864860000000    -0.0811572  
C744     C      0.482490000000     0.849990000000     0.859590000000     0.0364584  
C745     C      0.490540000000     0.835400000000     0.847280000000    -0.0805981  
C746     C      0.510380000000     0.836520000000     0.841340000000     0.0709422  
C747     C      0.514240000000     0.866570000000     0.858710000000     0.0713523  
C748     C      0.462200000000     0.847900000000     0.868050000000     0.0363619  
C749     C      0.458570000000     0.852670000000     0.888040000000    -0.080759   
C750     C      0.439970000000     0.849150000000     0.896390000000     0.0712607  
C751     C      0.428090000000     0.836920000000     0.865540000000     0.0706159  
C752     C      0.446580000000     0.840220000000     0.856690000000    -0.08077    
C753     C      0.600620000000     0.774320000000     0.892610000000    -0.0805483  
C754     C      0.611730000000     0.760600000000     0.881750000000     0.0364433  
C755     C      0.619480000000     0.766290000000     0.863250000000    -0.0811888  
C756     C      0.615270000000     0.784840000000     0.855590000000     0.0711909  
C757     C      0.596810000000     0.792860000000     0.884530000000     0.0708279  
C758     C      0.614340000000     0.740150000000     0.889080000000     0.0363407  
C759     C      0.617180000000     0.736090000000     0.909370000000    -0.0805922  
C760     C      0.618830000000     0.716660000000     0.915870000000     0.0707682  
C761     C      0.615230000000     0.705170000000     0.882710000000     0.0710126  
C762     C      0.613450000000     0.724350000000     0.875730000000    -0.0809756  
C763     C      0.758160000000     0.883490000000     0.615770000000    -0.0810395  
C764     C      0.763470000000     0.863980000000     0.619650000000     0.0364025  
C765     C      0.748770000000     0.851010000000     0.626270000000    -0.0809526  
C766     C      0.729240000000     0.857480000000     0.628330000000     0.0708186  
C767     C      0.738480000000     0.889490000000     0.618090000000     0.0709332  
C768     C      0.783920000000     0.856840000000     0.615740000000     0.0364112  
C769     C      0.793980000000     0.862510000000     0.598400000000    -0.0809402  
C770     C      0.812420000000     0.854330000000     0.593940000000     0.0711411  
C771     C      0.811680000000     0.835680000000     0.623770000000     0.0708867  
C772     C      0.793150000000     0.843510000000     0.628650000000    -0.0809225  
C773     C      0.626570000000     0.845570000000     0.551780000000    -0.0808344  
C774     C      0.630760000000     0.855450000000     0.533960000000     0.0364598  
C775     C      0.640920000000     0.873360000000     0.534960000000    -0.0810211  
C776     C      0.646800000000     0.880870000000     0.553370000000     0.0709789  
C777     C      0.632670000000     0.853530000000     0.569980000000     0.070842   
C778     C      0.625150000000     0.846970000000     0.514340000000     0.0364266  
C779     C      0.627450000000     0.826880000000     0.510530000000    -0.0807629  
C780     C      0.623650000000     0.819480000000     0.491480000000     0.0710129  
C781     C      0.614630000000     0.851170000000     0.480080000000     0.0707967  
C782     C      0.618260000000     0.859050000000     0.498930000000    -0.0810691  
C783     C      0.615930000000     0.856820000000     0.700910000000    -0.0809914  
C784     C      0.625760000000     0.861620000000     0.718640000000     0.0364699  
C785     C      0.643420000000     0.872370000000     0.717490000000    -0.0813592  
C786     C      0.650790000000     0.878180000000     0.699000000000     0.0711992  
C787     C      0.623780000000     0.862820000000     0.682610000000     0.0709647  
C788     C      0.617530000000     0.855990000000     0.738370000000     0.0365171  
C789     C      0.597260000000     0.857950000000     0.742500000000    -0.0808081  
C790     C      0.590230000000     0.854590000000     0.761810000000     0.0711415  
C791     C      0.622630000000     0.846420000000     0.772720000000     0.0714162  
C792     C      0.630140000000     0.849630000000     0.753630000000    -0.0817025  
C793     C      0.987150000000     0.840950000000     0.661580000000    -0.0798821  
C794     C      0.981990000000     0.844040000000     0.641590000000     0.0358992  
C795     C      0.996710000000     0.850430000000     0.628370000000    -0.0798889  
C796     C      0.016090000000     0.853190000000     0.635110000000     0.0699557  
C797     C      0.006700000000     0.843900000000     0.667840000000     0.0698865  
C798     C      0.961620000000     0.839820000000     0.634260000000     0.0365483  
C799     C      0.951430000000     0.823050000000     0.640670000000    -0.0808232  
C800     C      0.933040000000     0.818360000000     0.632370000000     0.0710049  
C801     C      0.934130000000     0.846830000000     0.612090000000     0.0708496  
C802     C      0.952560000000     0.851950000000     0.620060000000    -0.0808585  
C803     C      0.090680000000     0.866150000000     0.768020000000    -0.0810245  
C804     C      0.110270000000     0.862160000000     0.773630000000     0.0362713  
C805     C      0.123420000000     0.855060000000     0.759180000000    -0.081044   
C806     C      0.117060000000     0.852730000000     0.739520000000     0.0709587  
C807     C      0.084770000000     0.863490000000     0.748230000000     0.0707134  
C808     C      0.117340000000     0.866500000000     0.794120000000     0.0365857  
C809     C      0.112270000000     0.884200000000     0.803380000000    -0.0813654  
C810     C      0.120360000000     0.888940000000     0.821900000000     0.0713539  
C811     C      0.137720000000     0.858700000000     0.822800000000     0.0710905  
C812     C      0.130030000000     0.853560000000     0.804160000000    -0.0813113  
C813     C      0.115410000000     0.780780000000     0.622910000000    -0.0807761  
C814     C      0.112890000000     0.763700000000     0.634260000000     0.0364076  
C815     C      0.105120000000     0.765420000000     0.653540000000    -0.081262   
C816     C      0.099800000000     0.783770000000     0.660960000000     0.0710024  
C817     C      0.110030000000     0.799010000000     0.630880000000     0.0705584  
C818     C      0.117470000000     0.743990000000     0.626000000000     0.0362562  
C819     C      0.111730000000     0.738850000000     0.606610000000    -0.0805198  
C820     C      0.113740000000     0.719440000000     0.600120000000     0.0708114  
C821     C      0.128070000000     0.710430000000     0.631080000000     0.0708599  
C822     C      0.126280000000     0.729630000000     0.638020000000    -0.0812563  
C823     C      0.098410000000     0.946160000000     0.655800000000    -0.081199   
C824     C      0.117150000000     0.948820000000     0.647210000000     0.0362215  
C825     C      0.128670000000     0.932200000000     0.643090000000    -0.0805759  
C826     C      0.121350000000     0.913490000000     0.647550000000     0.0705051  
C827     C      0.091610000000     0.927330000000     0.660110000000     0.0708985  
C828     C      0.124490000000     0.968940000000     0.642850000000     0.0365052  
C829     C      0.111610000000     0.983140000000     0.635120000000    -0.0819469  
C830     C      0.118140000000     0.002360000000     0.632490000000     0.0714988  
C831     C      0.150120000000     0.993840000000     0.644310000000     0.0703047  
C832     C      0.144070000000     0.974400000000     0.647140000000    -0.0807204  
C833     C      0.338270000000     0.081030000000     0.468430000000    -0.0815943  
C834     C      0.352590000000     0.095840000000     0.469740000000     0.0366226  
C835     C      0.360890000000     0.103120000000     0.452070000000    -0.0808655  
C836     C      0.354840000000     0.095480000000     0.433660000000     0.071024   
C837     C      0.332520000000     0.073860000000     0.449880000000     0.0717493  
C838     C      0.358370000000     0.103700000000     0.489560000000     0.0363092  
C839     C      0.360270000000     0.123920000000     0.492820000000    -0.0805195  
C840     C      0.363600000000     0.131000000000     0.512120000000     0.0706778  
C841     C      0.364190000000     0.098520000000     0.524770000000     0.0709058  
C842     C      0.360860000000     0.090970000000     0.505750000000    -0.0814305  
C843     C      0.377750000000     0.274240000000     0.613670000000    -0.080032   
C844     C      0.374080000000     0.258640000000     0.626840000000     0.0363205  
C845     C      0.372810000000     0.262840000000     0.647270000000    -0.0809488  
C846     C      0.376400000000     0.281800000000     0.654180000000     0.0713311  
C847     C      0.380830000000     0.293190000000     0.621100000000     0.0704599  
C848     C      0.372470000000     0.237990000000     0.619570000000     0.0364561  
C849     C      0.364330000000     0.233510000000     0.600850000000    -0.0803634  
C850     C      0.363390000000     0.214000000000     0.594390000000     0.0709406  
C851     C      0.377980000000     0.203180000000     0.624580000000     0.0711466  
C852     C      0.379490000000     0.222450000000     0.631330000000    -0.0809186  
C853     C      0.237290000000     0.112010000000     0.628390000000    -0.081328   
C854     C      0.252380000000     0.098850000000     0.623220000000     0.0363683  
C855     C      0.247700000000     0.078850000000     0.621800000000    -0.0805076  
C856     C      0.228190000000     0.072570000000     0.624850000000     0.0707064  
C857     C      0.218000000000     0.105260000000     0.631270000000     0.0710556  
C858     C      0.272580000000     0.106160000000     0.618410000000     0.0362828  
C859     C      0.274950000000     0.123430000000     0.607340000000    -0.0810743  
C860     C      0.293870000000     0.130020000000     0.602380000000     0.0707601  
C861     C      0.308390000000     0.102990000000     0.619180000000     0.0705396  
C862     C      0.289600000000     0.095940000000     0.624400000000    -0.0806095  
C863     C      0.484150000000     0.106960000000     0.653390000000    -0.0805181  
C864     C      0.480310000000     0.105970000000     0.632860000000     0.0364511  
C865     C      0.496020000000     0.101500000000     0.619990000000    -0.0813344  
C866     C      0.515110000000     0.099080000000     0.627540000000     0.0712236  
C867     C      0.503490000000     0.104340000000     0.660470000000     0.0707744  
C868     C      0.460340000000     0.110580000000     0.624710000000     0.0363608  
C869     C      0.443000000000     0.104400000000     0.634370000000    -0.0805506  
C870     C      0.424450000000     0.109450000000     0.626570000000     0.0709231  
C871     C      0.439790000000     0.126430000000     0.599850000000     0.0711518  
C872     C      0.458500000000     0.121680000000     0.607220000000    -0.0810712  
C873     C      0.634350000000     0.025500000000     0.650740000000    -0.080644   
C874     C      0.624390000000     0.012600000000     0.637880000000     0.036957   
C875     C      0.606870000000     0.019090000000     0.628790000000    -0.0811705  
C876     C      0.599160000000     0.037520000000     0.633420000000     0.0713737  
C877     C      0.626290000000     0.043970000000     0.654890000000     0.0711235  
C878     C      0.631570000000     0.992160000000     0.634760000000     0.035883   
C879     C      0.651870000000     0.987810000000     0.633780000000    -0.0803978  
C880     C      0.658130000000     0.968360000000     0.631560000000     0.070576   
C881     C      0.624770000000     0.957440000000     0.630950000000     0.0708507  
C882     C      0.618010000000     0.976640000000     0.633260000000    -0.0807525  
C883     C      0.616300000000     0.177770000000     0.623810000000    -0.0807661  
C884     C      0.607460000000     0.194540000000     0.632000000000     0.0363579  
C885     C      0.593410000000     0.192150000000     0.647160000000    -0.0814391  
C886     C      0.588460000000     0.173430000000     0.653800000000     0.0712918  
C887     C      0.611110000000     0.159160000000     0.630960000000     0.0707584  
C888     C      0.612400000000     0.214540000000     0.624790000000     0.0364863  
C889     C      0.614870000000     0.229900000000     0.638410000000    -0.0816772  
C890     C      0.617320000000     0.249050000000     0.631580000000     0.0711717  
C891     C      0.615820000000     0.238180000000     0.598030000000     0.07095    
C892     C      0.613400000000     0.218760000000     0.604370000000    -0.0808049  
C893     C      0.792290000000     0.091840000000     0.885750000000    -0.081032   
C894     C      0.775780000000     0.095470000000     0.897860000000     0.0364052  
C895     C      0.777820000000     0.108360000000     0.913960000000    -0.0814784  
C896     C      0.796040000000     0.117230000000     0.917740000000     0.0709199  
C897     C      0.810450000000     0.100800000000     0.890140000000     0.0708901  
C898     C      0.756300000000     0.086270000000     0.893730000000     0.0364104  
C899     C      0.748210000000     0.086490000000     0.874520000000    -0.0808809  
C900     C      0.728900000000     0.079700000000     0.871420000000     0.0710417  
C901     C      0.725950000000     0.071390000000     0.905630000000     0.0710544  
C902     C      0.745100000000     0.078230000000     0.909290000000    -0.0815997  
C903     C      0.629170000000     0.925290000000     0.877010000000    -0.0813035  
C904     C      0.629580000000     0.940470000000     0.862930000000     0.0366902  
C905     C      0.621250000000     0.937160000000     0.844140000000    -0.0818291  
C906     C      0.612560000000     0.919130000000     0.839810000000     0.0715732  
C907     C      0.620550000000     0.907250000000     0.872060000000     0.0710895  
C908     C      0.637770000000     0.960070000000     0.867820000000     0.0362628  
C909     C      0.632430000000     0.969610000000     0.885500000000    -0.0808232  
C910     C      0.637980000000     0.989130000000     0.888530000000     0.0710745  
C911     C      0.655080000000     0.989520000000     0.857640000000     0.0708307  
C912     C      0.649660000000     0.970080000000     0.854060000000    -0.0815067  
C913     C      0.589370000000     0.078460000000     0.760170000000    -0.080234   
C914     C      0.601020000000     0.092820000000     0.769530000000     0.0363007  
C915     C      0.605640000000     0.109860000000     0.758800000000    -0.0809291  
C916     C      0.599600000000     0.111790000000     0.739010000000     0.0713877  
C917     C      0.583420000000     0.080950000000     0.740350000000     0.0709016  
C918     C      0.609360000000     0.089560000000     0.789830000000     0.0364251  
C919     C      0.598500000000     0.079790000000     0.804630000000    -0.0806899  
C920     C      0.607270000000     0.075690000000     0.823080000000     0.0705472  
C921     C      0.637000000000     0.091250000000     0.812860000000     0.0711536  
C922     C      0.628750000000     0.095510000000     0.794290000000    -0.0806682  
C923     C      0.632650000000     0.119120000000     0.951470000000    -0.08074    
C924     C      0.623950000000     0.108110000000     0.966810000000     0.0362264  
C925     C      0.619320000000     0.088410000000     0.963070000000    -0.0807017  
C926     C      0.623990000000     0.080000000000     0.944710000000     0.0712153  
C927     C      0.637150000000     0.110200000000     0.933230000000     0.070666   
C928     C      0.620680000000     0.116630000000     0.986970000000     0.0366768  
C929     C      0.634850000000     0.128990000000     0.995700000000    -0.0810388  
C930     C      0.632580000000     0.135110000000     0.015460000000     0.071518   
C931     C      0.602260000000     0.117700000000     0.017960000000     0.0718902  
C932     C      0.604000000000     0.111410000000     0.998240000000    -0.0816377  
C933     C      0.873750000000     0.603840000000     0.000540000000    -0.0793789  
C934     C      0.855470000000     0.607280000000     0.991290000000     0.0349272  
C935     C      0.841080000000     0.618050000000     0.001610000000    -0.0800847  
C936     C      0.844820000000     0.624450000000     0.021000000000     0.0704006  
C937     C      0.876940000000     0.610330000000     0.020050000000     0.0704393  
C938     C      0.850900000000     0.598710000000     0.971500000000     0.0369315  
C939     C      0.864480000000     0.599680000000     0.955730000000    -0.0811009  
C940     C      0.859710000000     0.591320000000     0.937280000000     0.0709443  
C941     C      0.828650000000     0.580740000000     0.949920000000     0.0711247  
C942     C      0.832840000000     0.589100000000     0.968400000000    -0.0817186  
C943     C      0.861820000000     0.725080000000     0.109910000000    -0.0808146  
C944     C      0.880720000000     0.733490000000     0.108980000000     0.036359   
C945     C      0.896440000000     0.722200000000     0.101610000000    -0.0816399  
C946     C      0.893270000000     0.702680000000     0.096270000000     0.0710797  
C947     C      0.859210000000     0.705410000000     0.104620000000     0.0710067  
C948     C      0.884440000000     0.753350000000     0.117130000000     0.0365366  
C949     C      0.872130000000     0.769250000000     0.112450000000    -0.0810896  
C950     C      0.875960000000     0.787720000000     0.120760000000     0.0710008  
C951     C      0.903440000000     0.774810000000     0.138520000000     0.0714012  
C952     C      0.900230000000     0.756330000000     0.130290000000    -0.0816481  
C953     C      0.752520000000     0.567210000000     0.113770000000    -0.0808809  
C954     C      0.761760000000     0.577960000000     0.128970000000     0.0365415  
C955     C      0.750880000000     0.582180000000     0.146250000000    -0.0810668  
C956     C      0.731030000000     0.576510000000     0.147620000000     0.0713669  
C957     C      0.732660000000     0.561780000000     0.115640000000     0.0714176  
C958     C      0.782040000000     0.586000000000     0.126050000000     0.0364715  
C959     C      0.796680000000     0.575110000000     0.116180000000    -0.0811001  
C960     C      0.814820000000     0.583830000000     0.111440000000     0.07074    
C961     C      0.804730000000     0.613520000000     0.126820000000     0.0713146  
C962     C      0.786460000000     0.605270000000     0.131790000000    -0.080647   
C963     C      0.366980000000     0.176830000000     0.116710000000    -0.0810269  
C964     C      0.369680000000     0.193720000000     0.128300000000     0.0363642  
C965     C      0.376660000000     0.191590000000     0.147840000000    -0.0811427  
C966     C      0.381300000000     0.173010000000     0.155190000000     0.0709757  
C967     C      0.371630000000     0.158410000000     0.124610000000     0.0707812  
C968     C      0.366330000000     0.213600000000     0.119880000000     0.0363348  
C969     C      0.373340000000     0.218470000000     0.100850000000    -0.0807019  
C970     C      0.372370000000     0.237880000000     0.094220000000     0.0709666  
C971     C      0.356610000000     0.247510000000     0.124260000000     0.0707952  
C972     C      0.357410000000     0.228290000000     0.131390000000    -0.0813954  
C973     C      0.385490000000     0.351820000000     0.005290000000    -0.0807715  
C974     C      0.373640000000     0.342260000000     0.991160000000     0.0361288  
C975     C      0.364190000000     0.324770000000     0.996690000000    -0.0810366  
C976     C      0.365880000000     0.317810000000     0.016210000000     0.0717389  
C977     C      0.386890000000     0.344430000000     0.024650000000     0.0711135  
C978     C      0.369910000000     0.351220000000     0.971300000000     0.0364416  
C979     C      0.366250000000     0.371390000000     0.969670000000    -0.081038   
C980     C      0.360830000000     0.379430000000     0.951330000000     0.0711055  
C981     C      0.363380000000     0.348250000000     0.935890000000     0.0711487  
C982     C      0.368750000000     0.339680000000     0.954050000000    -0.0810324  
C983     C      0.494250000000     0.356190000000     0.140670000000    -0.0807443  
C984     C      0.484610000000     0.338600000000     0.145370000000     0.0363568  
C985     C      0.494670000000     0.324730000000     0.157000000000    -0.0812473  
C986     C      0.514200000000     0.328230000000     0.162910000000     0.0710284  
C987     C      0.513840000000     0.359160000000     0.146720000000     0.0710759  
C988     C      0.464700000000     0.334190000000     0.137080000000     0.0366869  
C989     C      0.449710000000     0.348410000000     0.136700000000    -0.0812267  
C990     C      0.431390000000     0.344050000000     0.127980000000     0.0712159  
C991     C      0.442490000000     0.312000000000     0.119960000000     0.0713235  
C992     C      0.460850000000     0.315780000000     0.128690000000    -0.0815014  
C993     C      0.997520000000     0.352040000000     0.388840000000    -0.0803149  
C994     C      0.983190000000     0.344000000000     0.376140000000     0.0358286  
C995     C      0.988570000000     0.339730000000     0.356420000000    -0.0796891  
C996     C      0.008070000000     0.342850000000     0.350070000000     0.0696924  
C997     C      0.016820000000     0.355010000000     0.381990000000     0.0700337  
C998     C      0.963010000000     0.339390000000     0.383710000000     0.0366001  
C999     C      0.960530000000     0.330960000000     0.402600000000    -0.0811555  
C1000    C      0.941600000000     0.326210000000     0.409440000000     0.0711393  
C1001    C      0.927330000000     0.338140000000     0.379490000000     0.0710512  
C1002    C      0.946110000000     0.343000000000     0.372130000000    -0.0808054  
C1003    C      0.130020000000     0.428840000000     0.380630000000    -0.0809882  
C1004    C      0.124090000000     0.445360000000     0.369730000000     0.0363684  
C1005    C      0.109430000000     0.443160000000     0.355160000000    -0.0816248  
C1006    C      0.101120000000     0.424780000000     0.351620000000     0.0710588  
C1007    C      0.121590000000     0.410520000000     0.376460000000     0.0706948  
C1008    C      0.132810000000     0.464970000000     0.373490000000     0.036263   
C1009    C      0.133940000000     0.472610000000     0.392830000000    -0.0808268  
C1010    C      0.140110000000     0.491990000000     0.395740000000     0.0708812  
C1011    C      0.145290000000     0.495900000000     0.360990000000     0.0709659  
C1012    C      0.138960000000     0.476720000000     0.357530000000    -0.0815861  
C1013    C      0.117610000000     0.232440000000     0.406010000000    -0.0804318  
C1014    C      0.106750000000     0.237930000000     0.389060000000     0.0364432  
C1015    C      0.096150000000     0.223390000000     0.378840000000    -0.0811936  
C1016    C      0.096860000000     0.203970000000     0.385260000000     0.0714108  
C1017    C      0.117870000000     0.212780000000     0.412140000000     0.0706729  
C1018    C      0.106160000000     0.258630000000     0.381950000000     0.0362982  
C1019    C      0.105230000000     0.274410000000     0.395330000000    -0.0802236  
C1020    C      0.102750000000     0.293550000000     0.388140000000     0.0702937  
C1021    C      0.102850000000     0.281880000000     0.354850000000     0.0710972  
C1022    C      0.105560000000     0.262700000000     0.361480000000    -0.0811484  
C1023    C      0.124050000000     0.601050000000     0.304550000000    -0.0807995  
C1024    C      0.104520000000     0.595080000000     0.300850000000     0.0363779  
C1025    C      0.094140000000     0.585450000000     0.316080000000    -0.0809823  
C1026    C      0.103570000000     0.581330000000     0.334170000000     0.0706523  
C1027    C      0.133030000000     0.596620000000     0.322740000000     0.0713048  
C1028    C      0.095710000000     0.597680000000     0.280700000000     0.0364877  
C1029    C      0.099230000000     0.614780000000     0.269650000000    -0.0811674  
C1030    C      0.093120000000     0.615890000000     0.249790000000     0.0713172  
C1031    C      0.079180000000     0.584030000000     0.251790000000     0.0712355  
C1032    C      0.085050000000     0.582430000000     0.271690000000    -0.0808032  
C1033    C      0.951800000000     0.598000000000     0.124730000000    -0.0808035  
C1034    C      0.955020000000     0.604300000000     0.144350000000     0.0366344  
C1035    C      0.939590000000     0.614000000000     0.154290000000    -0.0812112  
C1036    C      0.921800000000     0.617830000000     0.144350000000     0.0709589  
C1037    C      0.933870000000     0.602130000000     0.115250000000     0.0713559  
C1038    C      0.974820000000     0.601930000000     0.153780000000     0.0360851  
C1039    C      0.985990000000     0.584850000000     0.150800000000    -0.0802052  
C1040    C      0.005480000000     0.583840000000     0.157740000000     0.0705485  
C1041    C      0.002870000000     0.615840000000     0.171350000000     0.0704163  
C1042    C      0.983330000000     0.617330000000     0.164650000000    -0.0798865  
C1043    C      0.135520000000     0.818080000000     0.997950000000    -0.0812278  
C1044    C      0.130630000000     0.837380000000     0.992670000000     0.0360313  
C1045    C      0.122610000000     0.849700000000     0.007300000000    -0.0806175  
C1046    C      0.120040000000     0.842820000000     0.026720000000     0.0708409  
C1047    C      0.132640000000     0.811640000000     0.017530000000     0.0711507  
C1048    C      0.134690000000     0.845030000000     0.972320000000     0.0364507  
C1049    C      0.152560000000     0.840670000000     0.962650000000    -0.080952   
C1050    C      0.157000000000     0.849480000000     0.944390000000     0.0710148  
C1051    C      0.126150000000     0.866150000000     0.944560000000     0.0708617  
C1052    C      0.121260000000     0.857650000000     0.962860000000    -0.0811121  
C1053    C      0.116500000000     0.722460000000     0.137500000000    -0.0808493  
C1054    C      0.112180000000     0.707410000000     0.123950000000     0.0363388  
C1055    C      0.110880000000     0.712110000000     0.103650000000    -0.0808133  
C1056    C      0.113470000000     0.731510000000     0.097390000000     0.0708288  
C1057    C      0.118950000000     0.741660000000     0.130750000000     0.0708473  
C1058    C      0.108060000000     0.687200000000     0.131190000000     0.0363913  
C1059    C      0.119070000000     0.679050000000     0.146860000000    -0.0808352  
C1060    C      0.113760000000     0.660830000000     0.154750000000     0.0707807  
C1061    C      0.087400000000     0.658130000000     0.131520000000     0.0710091  
C1062    C      0.092320000000     0.676300000000     0.123260000000    -0.0808103  
C1063    C      0.193010000000     0.856010000000     0.129280000000    -0.080883   
C1064    C      0.210800000000     0.845880000000     0.126030000000     0.0363311  
C1065    C      0.209950000000     0.827230000000     0.117300000000    -0.0810668  
C1066    C      0.191740000000     0.819310000000     0.111650000000     0.071022   
C1067    C      0.174990000000     0.847580000000     0.123530000000     0.0707516  
C1068    C      0.230280000000     0.854940000000     0.130690000000     0.0364982  
C1069    C      0.234110000000     0.874560000000     0.125820000000    -0.0807079  
C1070    C      0.253240000000     0.882130000000     0.128000000000     0.071194   
C1071    C      0.264590000000     0.851690000000     0.140730000000     0.070954   
C1072    C      0.245670000000     0.843650000000     0.138730000000    -0.0814129  
C1073    C      0.042120000000     0.840830000000     0.135580000000    -0.0810923  
C1074    C      0.025270000000     0.835010000000     0.124880000000     0.0368824  
C1075    C      0.027870000000     0.823650000000     0.107680000000    -0.0814944  
C1076    C      0.046860000000     0.818350000000     0.101540000000     0.0710641  
C1077    C      0.060970000000     0.835280000000     0.128980000000     0.0709045  
C1078    C      0.004990000000     0.840270000000     0.131680000000     0.0346754  
C1079    C      0.999750000000     0.839210000000     0.151880000000    -0.0788206  
C1080    C      0.980070000000     0.842310000000     0.157650000000     0.0701994  
C1081    C      0.970870000000     0.848350000000     0.124080000000     0.0707831  
C1082    C      0.990350000000     0.845390000000     0.117820000000    -0.0803086  
C1083    C      0.295410000000     0.349880000000     0.133890000000    -0.0813186  
C1084    C      0.283770000000     0.359280000000     0.119480000000     0.0365194  
C1085    C      0.291030000000     0.360700000000     0.099990000000    -0.0814312  
C1086    C      0.309250000000     0.352290000000     0.095120000000     0.0712802  
C1087    C      0.313740000000     0.341860000000     0.128550000000     0.0710832  
C1088    C      0.263680000000     0.366680000000     0.124350000000     0.0364079  
C1089    C      0.250260000000     0.354890000000     0.134830000000    -0.0811512  
C1090    C      0.230780000000     0.361240000000     0.137620000000     0.0709842  
C1091    C      0.237820000000     0.391050000000     0.120820000000     0.0709158  
C1092    C      0.257350000000     0.385050000000     0.117550000000    -0.0813876  
C1093    C      0.109220000000     0.521650000000     0.135090000000    -0.0809117  
C1094    C      0.124050000000     0.513180000000     0.146940000000     0.0364034  
C1095    C      0.130950000000     0.523690000000     0.163490000000    -0.0808128  
C1096    C      0.122520000000     0.541790000000     0.168320000000     0.0710859  
C1097    C      0.101130000000     0.539790000000     0.140350000000     0.0709404  
C1098    C      0.131480000000     0.493070000000     0.142750000000     0.0363279  
C1099    C      0.118340000000     0.478170000000     0.137050000000    -0.0808636  
C1100    C      0.125220000000     0.459030000000     0.134480000000     0.0709146  
C1101    C      0.157930000000     0.468980000000     0.142540000000     0.0709209  
C1102    C      0.151540000000     0.488300000000     0.145270000000    -0.0808252  
C1103    C      0.097280000000     0.363000000000     0.251500000000    -0.0804949  
C1104    C      0.117620000000     0.361460000000     0.247490000000     0.0362444  
C1105    C      0.130340000000     0.356160000000     0.263090000000    -0.0812842  
C1106    C      0.122830000000     0.353290000000     0.282240000000     0.0709302  
C1107    C      0.090240000000     0.360000000000     0.270880000000     0.0707221  
C1108    C      0.125740000000     0.366260000000     0.227460000000     0.0363693  
C1109    C      0.115970000000     0.360500000000     0.209970000000    -0.0807204  
C1110    C      0.123800000000     0.365630000000     0.191360000000     0.0707221  
C1111    C      0.150670000000     0.381960000000     0.206970000000     0.0709455  
C1112    C      0.143310000000     0.377080000000     0.225740000000    -0.081208   
C1113    C      0.112670000000     0.182090000000     0.896880000000    -0.0807064  
C1114    C      0.108520000000     0.198390000000     0.884840000000     0.0363564  
C1115    C      0.100710000000     0.195140000000     0.865770000000    -0.0811981  
C1116    C      0.097050000000     0.176080000000     0.859220000000     0.0708058  
C1117    C      0.108820000000     0.163150000000     0.889830000000     0.070639   
C1118    C      0.111930000000     0.218750000000     0.892040000000     0.0362632  
C1119    C      0.107220000000     0.224240000000     0.911630000000    -0.0804526  
C1120    C      0.109250000000     0.243820000000     0.917580000000     0.0705483  
C1121    C      0.120960000000     0.252500000000     0.885440000000     0.0709609  
C1122    C      0.119180000000     0.233130000000     0.879040000000    -0.0812029  
C1123    C      0.133360000000     0.329390000000     0.015010000000    -0.079721   
C1124    C      0.129930000000     0.349070000000     0.020020000000     0.0359647  
C1125    C      0.122400000000     0.361620000000     0.005330000000    -0.080624   
C1126    C      0.119240000000     0.354690000000     0.986040000000     0.0704414  
C1127    C      0.129950000000     0.322900000000     0.995500000000     0.0698679  
C1128    C      0.135000000000     0.356830000000     0.040120000000     0.0364895  
C1129    C      0.131250000000     0.345970000000     0.057470000000    -0.0805985  
C1130    C      0.136390000000     0.353680000000     0.076120000000     0.0706134  
C1131    C      0.148850000000     0.382500000000     0.060820000000     0.0709996  
C1132    C      0.143920000000     0.375290000000     0.042030000000    -0.0812447  
C1133    C      0.027500000000     0.340280000000     0.902140000000    -0.0812043  
C1134    C      0.024000000000     0.340820000000     0.881540000000     0.0367822  
C1135    C      0.040350000000     0.339350000000     0.868680000000    -0.0803887  
C1136    C      0.059410000000     0.336690000000     0.876490000000     0.070645   
C1137    C      0.046620000000     0.337270000000     0.909390000000     0.0711939  
C1138    C      0.003340000000     0.342150000000     0.873700000000     0.0348284  
C1139    C      0.987700000000     0.333030000000     0.883880000000    -0.0798415  
C1140    C      0.968370000000     0.334470000000     0.876690000000     0.0708043  
C1141    C      0.979410000000     0.353200000000     0.849080000000     0.0703097  
C1142    C      0.998970000000     0.352290000000     0.856020000000    -0.0785908  
C1143    C      0.209200000000     0.334790000000     0.896600000000    -0.0812634  
C1144    C      0.212800000000     0.354970000000     0.894840000000     0.036375   
C1145    C      0.196550000000     0.367800000000     0.895620000000    -0.0803298  
C1146    C      0.177460000000     0.360400000000     0.898900000000     0.0705971  
C1147    C      0.190060000000     0.327970000000     0.900130000000     0.0714081  
C1148    C      0.233500000000     0.362380000000     0.892960000000     0.0363666  
C1149    C      0.248970000000     0.352990000000     0.903150000000    -0.0811388  
C1150    C      0.268410000000     0.359500000000     0.900940000000     0.0711368  
C1151    C      0.257820000000     0.385000000000     0.879410000000     0.0708814  
C1152    C      0.238130000000     0.378710000000     0.881100000000    -0.080426   
Cd1      Cd     0.118480000000     0.318210000000     0.920340000000     0.510336   
Cd2      Cd     0.163590000000     0.394910000000     0.133770000000     0.51088    
Cd3      Cd     0.120320000000     0.805860000000     0.092430000000     0.511149   
Cd4      Cd     0.076210000000     0.600000000000     0.177800000000     0.509576   
Cd5      Cd     0.083050000000     0.353020000000     0.346170000000     0.510734   
Cd6      Cd     0.372850000000     0.312540000000     0.091500000000     0.509554   
Cd7      Cd     0.868920000000     0.632300000000     0.092280000000     0.510445   
Cd8      Cd     0.656160000000     0.061010000000     0.879260000000     0.509804   
Cd9      Cd     0.578900000000     0.101070000000     0.667180000000     0.510045   
Cd10     Cd     0.366910000000     0.139310000000     0.587760000000     0.511437   
Cd11     Cd     0.081360000000     0.854790000000     0.672890000000     0.510838   
Cd12     Cd     0.663410000000     0.893750000000     0.626140000000     0.510768   
Cd13     Cd     0.584590000000     0.850430000000     0.837360000000     0.510152   
Cd14     Cd     0.904770000000     0.845990000000     0.159440000000     0.510383   
Cd15     Cd     0.574370000000     0.598840000000     0.343070000000     0.510779   
Cd16     Cd     0.658880000000     0.392430000000     0.381250000000     0.510645   
Cd17     Cd     0.659370000000     0.558780000000     0.132500000000     0.509873   
Cd18     Cd     0.586020000000     0.350570000000     0.166600000000     0.5101     
Cd19     Cd     0.830280000000     0.880180000000     0.374930000000     0.509306   
Cd20     Cd     0.400040000000     0.850200000000     0.344750000000     0.50961    
Cd21     Cd     0.615000000000     0.810730000000     0.416590000000     0.511824   
Cd22     Cd     0.400220000000     0.351640000000     0.664450000000     0.509823   
Cd23     Cd     0.616490000000     0.313010000000     0.593250000000     0.510332   
Cd24     Cd     0.116070000000     0.644760000000     0.597990000000     0.509075   
Cd25     Cd     0.154640000000     0.565020000000     0.387620000000     0.50959    
Cd26     Cd     0.365980000000     0.643570000000     0.427200000000     0.5091     
Cd27     Cd     0.327100000000     0.566040000000     0.636880000000     0.509987   
Cd28     Cd     0.162160000000     0.895330000000     0.884620000000     0.509182   
Cd29     Cd     0.333390000000     0.391800000000     0.882080000000     0.51005    
Cd30     Cd     0.372370000000     0.822150000000     0.914650000000     0.509949   
Cd31     Cd     0.403290000000     0.605740000000     0.851730000000     0.511497   
Cd32     Cd     0.867410000000     0.139250000000     0.921790000000     0.51199    
Cd33     Cd     0.619230000000     0.642050000000     0.922410000000     0.511143   
Cd34     Cd     0.872950000000     0.810340000000     0.587070000000     0.509088   
Cd35     Cd     0.901280000000     0.601410000000     0.665200000000     0.509889   
Cd36     Cd     0.826110000000     0.556770000000     0.878620000000     0.510955   
Cd37     Cd     0.904290000000     0.348180000000     0.839800000000     0.510108   
Cd38     Cd     0.868310000000     0.312010000000     0.418840000000     0.51001    
Cd39     Cd     0.824580000000     0.393330000000     0.629190000000     0.509097   
Cd40     Cd     0.328140000000     0.889950000000     0.130200000000     0.511065   
Cd41     Cd     0.893650000000     0.097160000000     0.347480000000     0.510957   
Cd42     Cd     0.083360000000     0.103300000000     0.851600000000     0.510195   
Cd43     Cd     0.109280000000     0.138400000000     0.418110000000     0.509637   
Cd44     Cd     0.153170000000     0.068050000000     0.633500000000     0.510632   
Cd45     Cd     0.822010000000     0.055740000000     0.130950000000     0.511263   
Cd46     Cd     0.613930000000     0.140900000000     0.088870000000     0.510139   
Cd47     Cd     0.319720000000     0.058740000000     0.377240000000     0.510055   
Cd48     Cd     0.399670000000     0.101400000000     0.164960000000     0.511023   
H1       H      0.387230000000     0.070560000000     0.294990000000     0.0560772  
H2       H      0.374160000000     0.063140000000     0.327890000000     0.0352022  
H3       H      0.322500000000     0.097460000000     0.315640000000     0.0354824  
H4       H      0.335330000000     0.105690000000     0.283010000000     0.0561402  
H5       H      0.339800000000     0.089190000000     0.252100000000     0.0562289  
H6       H      0.350870000000     0.093740000000     0.218180000000     0.0356186  
H7       H      0.410910000000     0.098910000000     0.238010000000     0.0361336  
H8       H      0.400250000000     0.094920000000     0.272430000000     0.0559782  
H9       H      0.485480000000     0.110530000000     0.103010000000     0.0564149  
H10      H      0.451970000000     0.105470000000     0.114870000000     0.0355877  
H11      H      0.472360000000     0.106280000000     0.175260000000     0.036112   
H12      H      0.506230000000     0.111540000000     0.163830000000     0.056558   
H13      H      0.509020000000     0.138070000000     0.103860000000     0.0565228  
H14      H      0.541890000000     0.145590000000     0.091700000000     0.0357763  
H15      H      0.567100000000     0.103940000000     0.132130000000     0.0352697  
H16      H      0.534140000000     0.095930000000     0.144660000000     0.0564981  
H17      H      0.715150000000     0.056630000000     0.124110000000     0.0560856  
H18      H      0.749240000000     0.045490000000     0.127760000000     0.0361031  
H19      H      0.769490000000     0.104960000000     0.127640000000     0.0355653  
H20      H      0.735910000000     0.116530000000     0.123510000000     0.056366   
H21      H      0.704730000000     0.119860000000     0.139900000000     0.0560361  
H22      H      0.672780000000     0.133670000000     0.131310000000     0.0356325  
H23      H      0.661400000000     0.085630000000     0.091920000000     0.0351774  
H24      H      0.693600000000     0.071650000000     0.099690000000     0.0561575  
H25      H      0.135410000000     0.076860000000     0.528860000000     0.0568234  
H26      H      0.144140000000     0.064700000000     0.561540000000     0.0357593  
H27      H      0.123080000000     0.117720000000     0.588310000000     0.0354839  
H28      H      0.114070000000     0.130430000000     0.555520000000     0.0564201  
H29      H      0.105170000000     0.084890000000     0.509620000000     0.0566424  
H30      H      0.099940000000     0.095630000000     0.475640000000     0.0360722  
H31      H      0.125580000000     0.151450000000     0.489220000000     0.0356765  
H32      H      0.131170000000     0.141050000000     0.523550000000     0.0563431  
H33      H      0.204100000000     0.125720000000     0.371340000000     0.056002   
H34      H      0.171690000000     0.138490000000     0.379880000000     0.0350881  
H35      H      0.156060000000     0.083730000000     0.406740000000     0.0354643  
H36      H      0.188630000000     0.070640000000     0.399050000000     0.0560362  
H37      H      0.233450000000     0.118240000000     0.389380000000     0.0564034  
H38      H      0.267150000000     0.106880000000     0.386190000000     0.0359372  
H39      H      0.246700000000     0.049160000000     0.371920000000     0.035314   
H40      H      0.212460000000     0.060230000000     0.374450000000     0.0558971  
H41      H      0.137350000000     0.079970000000     0.762940000000     0.0559053  
H42      H      0.127070000000     0.083400000000     0.797190000000     0.0352513  
H43      H      0.073390000000     0.111410000000     0.778740000000     0.0359929  
H44      H      0.083660000000     0.109090000000     0.744070000000     0.0557637  
H45      H      0.088910000000     0.087710000000     0.716840000000     0.0557677  
H46      H      0.100630000000     0.082620000000     0.682990000000     0.0354313  
H47      H      0.160460000000     0.091350000000     0.702110000000     0.0355084  
H48      H      0.149320000000     0.097500000000     0.735740000000     0.0559457  
H49      H      0.830500000000     0.063160000000     0.237130000000     0.0561771  
H50      H      0.818870000000     0.055790000000     0.203850000000     0.0354258  
H51      H      0.866220000000     0.089450000000     0.178770000000     0.0362601  
H52      H      0.878100000000     0.097510000000     0.212020000000     0.0562935  
H53      H      0.893690000000     0.082420000000     0.241040000000     0.0562771  
H54      H      0.904770000000     0.088130000000     0.275050000000     0.0359969  
H55      H      0.844650000000     0.095060000000     0.294070000000     0.0359639  
H56      H      0.833120000000     0.089890000000     0.260330000000     0.0561431  
H57      H      0.029020000000     0.099140000000     0.359140000000     0.0561728  
H58      H      0.062130000000     0.106990000000     0.371260000000     0.0355013  
H59      H      0.037160000000     0.135620000000     0.422160000000     0.0355038  
H60      H      0.004090000000     0.128360000000     0.410420000000     0.0561222  
H61      H      0.982120000000     0.100710000000     0.405850000000     0.0565881  
H62      H      0.948380000000     0.095790000000     0.394770000000     0.0361041  
H63      H      0.965050000000     0.109810000000     0.334910000000     0.0358654  
H64      H      0.999110000000     0.115250000000     0.345620000000     0.0565127  
H65      H      0.384200000000     0.977880000000     0.116390000000     0.0561828  
H66      H      0.372480000000     0.944380000000     0.113340000000     0.0352768  
H67      H      0.316360000000     0.960910000000     0.137840000000     0.0362472  
H68      H      0.327710000000     0.994540000000     0.141370000000     0.056479   
H69      H      0.338720000000     0.024560000000     0.123980000000     0.0564469  
H70      H      0.351350000000     0.056730000000     0.133250000000     0.0360873  
H71      H      0.405340000000     0.030690000000     0.153740000000     0.0354217  
H72      H      0.393170000000     0.998460000000     0.144880000000     0.0562096  
H73      H      0.867730000000     0.198620000000     0.350940000000     0.055943   
H74      H      0.872430000000     0.165310000000     0.339640000000     0.0354464  
H75      H      0.876220000000     0.145310000000     0.399940000000     0.0355513  
H76      H      0.872540000000     0.178760000000     0.411900000000     0.0557794  
H77      H      0.852860000000     0.207220000000     0.416220000000     0.0558023  
H78      H      0.852960000000     0.241290000000     0.426940000000     0.036029   
H79      H      0.886030000000     0.257450000000     0.375080000000     0.0353103  
H80      H      0.887040000000     0.223690000000     0.364400000000     0.0560145  
H81      H      0.862970000000     0.371160000000     0.507040000000     0.0566777  
H82      H      0.867330000000     0.360270000000     0.472970000000     0.03561    
H83      H      0.863320000000     0.300380000000     0.491580000000     0.0359977  
H84      H      0.859060000000     0.310810000000     0.526030000000     0.0562365  
H85      H      0.833290000000     0.327640000000     0.545880000000     0.0564976  
H86      H      0.824740000000     0.341040000000     0.578300000000     0.0353863  
H87      H      0.869930000000     0.384660000000     0.572270000000     0.0359371  
H88      H      0.879000000000     0.371510000000     0.539900000000     0.0563237  
H89      H      0.907540000000     0.358450000000     0.732690000000     0.0562092  
H90      H      0.917490000000     0.353870000000     0.767280000000     0.0359941  
H91      H      0.856700000000     0.348720000000     0.784670000000     0.0356377  
H92      H      0.846280000000     0.353360000000     0.750470000000     0.0566695  
H93      H      0.846740000000     0.338010000000     0.717430000000     0.0562098  
H94      H      0.833700000000     0.347400000000     0.685080000000     0.0359429  
H95      H      0.877190000000     0.392850000000     0.680430000000     0.0353729  
H96      H      0.890470000000     0.383980000000     0.712860000000     0.0564569  
H97      H      0.884210000000     0.469980000000     0.892170000000     0.0560709  
H98      H      0.871550000000     0.503110000000     0.895410000000     0.0352345  
H99      H      0.816740000000     0.485700000000     0.868650000000     0.0363017  
H100     H      0.829090000000     0.452470000000     0.864770000000     0.0564539  
H101     H      0.839940000000     0.422340000000     0.881060000000     0.056141   
H102     H      0.853670000000     0.390740000000     0.871380000000     0.0359481  
H103     H      0.908370000000     0.418310000000     0.855370000000     0.0354901  
H104     H      0.895100000000     0.450010000000     0.864530000000     0.0563033  
H105     H      0.866520000000     0.615600000000     0.765450000000     0.0567755  
H106     H      0.877480000000     0.621990000000     0.731520000000     0.0363881  
H107     H      0.902640000000     0.564480000000     0.728080000000     0.0350866  
H108     H      0.891880000000     0.557630000000     0.761910000000     0.0565116  
H109     H      0.858170000000     0.552930000000     0.777010000000     0.0567275  
H110     H      0.843550000000     0.545240000000     0.809030000000     0.035485   
H111     H      0.863840000000     0.599990000000     0.832630000000     0.0358732  
H112     H      0.878650000000     0.608210000000     0.800530000000     0.0565508  
H113     H      0.827540000000     0.526840000000     0.650240000000     0.0559173  
H114     H      0.843020000000     0.558310000000     0.657260000000     0.034964   
H115     H      0.896160000000     0.539470000000     0.628200000000     0.0366569  
H116     H      0.881290000000     0.507890000000     0.621160000000     0.0568391  
H117     H      0.855620000000     0.490470000000     0.602680000000     0.0562136  
H118     H      0.845430000000     0.456390000000     0.600510000000     0.0360031  
H119     H      0.821750000000     0.459160000000     0.659600000000     0.0352345  
H120     H      0.831980000000     0.493180000000     0.662390000000     0.0563458  
H121     H      0.843080000000     0.714920000000     0.620420000000     0.0560887  
H122     H      0.842120000000     0.748970000000     0.609890000000     0.0357735  
H123     H      0.899560000000     0.743190000000     0.583530000000     0.0353784  
H124     H      0.901210000000     0.709230000000     0.594160000000     0.0562545  
H125     H      0.888040000000     0.676250000000     0.590880000000     0.0558674  
H126     H      0.894200000000     0.644680000000     0.606550000000     0.0350451  
H127     H      0.867140000000     0.664910000000     0.660430000000     0.036586   
H128     H      0.861080000000     0.696640000000     0.645430000000     0.0566859  
H129     H      0.722110000000     0.627980000000     0.899790000000     0.0563894  
H130     H      0.690850000000     0.642100000000     0.910130000000     0.035387   
H131     H      0.659820000000     0.591790000000     0.888210000000     0.036124   
H132     H      0.690980000000     0.577250000000     0.877410000000     0.0562257  
H133     H      0.720950000000     0.563250000000     0.892850000000     0.0564891  
H134     H      0.753840000000     0.549730000000     0.887450000000     0.0362074  
H135     H      0.773990000000     0.605130000000     0.865380000000     0.0352413  
H136     H      0.741270000000     0.619020000000     0.870300000000     0.056176   
H137     H      0.851270000000     0.133730000000     0.027610000000     0.0564414  
H138     H      0.856890000000     0.146860000000     0.994360000000     0.0362383  
H139     H      0.876520000000     0.090530000000     0.974340000000     0.0354011  
H140     H      0.871400000000     0.077060000000     0.007340000000     0.0561909  
H141     H      0.842180000000     0.069250000000     0.027080000000     0.0564143  
H142     H      0.832450000000     0.055410000000     0.058800000000     0.0354238  
H143     H      0.856490000000     0.105110000000     0.089340000000     0.0361391  
H144     H      0.866710000000     0.119370000000     0.057670000000     0.056383   
H145     H      0.878140000000     0.244040000000     0.915530000000     0.0563591  
H146     H      0.873950000000     0.211150000000     0.928790000000     0.03619    
H147     H      0.858420000000     0.189980000000     0.870830000000     0.0354311  
H148     H      0.862050000000     0.222690000000     0.857160000000     0.0561139  
H149     H      0.889210000000     0.244640000000     0.849940000000     0.0564067  
H150     H      0.897280000000     0.276670000000     0.836640000000     0.0353391  
H151     H      0.870350000000     0.304220000000     0.887130000000     0.0362705  
H152     H      0.861680000000     0.272310000000     0.900760000000     0.0562426  
H153     H      0.976670000000     0.106730000000     0.850850000000     0.0562243  
H154     H      0.010850000000     0.101990000000     0.840300000000     0.0361404  
H155     H      0.030170000000     0.104620000000     0.900990000000     0.0356066  
H156     H      0.996310000000     0.108900000000     0.912050000000     0.0561122  
H157     H      0.948340000000     0.092910000000     0.869170000000     0.0563291  
H158     H      0.915070000000     0.101550000000     0.880310000000     0.0359564  
H159     H      0.939370000000     0.143150000000     0.921350000000     0.0356941  
H160     H      0.972500000000     0.135210000000     0.910420000000     0.0565102  
H161     H      0.538100000000     0.600180000000     0.866870000000     0.0562666  
H162     H      0.571300000000     0.608120000000     0.878520000000     0.036113   
H163     H      0.546890000000     0.642190000000     0.926130000000     0.0352669  
H164     H      0.513690000000     0.634940000000     0.914730000000     0.0560909  
H165     H      0.490300000000     0.608440000000     0.912240000000     0.0560706  
H166     H      0.456550000000     0.604310000000     0.900780000000     0.035561   
H167     H      0.475400000000     0.610980000000     0.840260000000     0.0361384  
H168     H      0.509410000000     0.615670000000     0.851280000000     0.0562939  
H169     H      0.331940000000     0.824330000000     0.013490000000     0.0563185  
H170     H      0.338570000000     0.815230000000     0.979140000000     0.0352075  
H171     H      0.392650000000     0.848000000000     0.980240000000     0.0363797  
H172     H      0.386450000000     0.857390000000     0.014650000000     0.0566906  
H173     H      0.382530000000     0.844220000000     0.049820000000     0.0566365  
H174     H      0.373880000000     0.857650000000     0.082380000000     0.0357191  
H175     H      0.315100000000     0.869710000000     0.061770000000     0.03532    
H176     H      0.323200000000     0.856430000000     0.029330000000     0.0568121  
H177     H      0.349250000000     0.721310000000     0.892290000000     0.0571252  
H178     H      0.345780000000     0.755750000000     0.901450000000     0.036047   
H179     H      0.408330000000     0.759800000000     0.911180000000     0.0350277  
H180     H      0.412280000000     0.725610000000     0.901900000000     0.0567463  
H181     H      0.406870000000     0.709010000000     0.867630000000     0.0571878  
H182     H      0.411850000000     0.676210000000     0.854830000000     0.0356087  
H183     H      0.366930000000     0.654100000000     0.893880000000     0.0355678  
H184     H      0.361330000000     0.687160000000     0.906870000000     0.0568289  
H185     H      0.335810000000     0.496710000000     0.897810000000     0.0558784  
H186     H      0.325460000000     0.462490000000     0.898450000000     0.0354995  
H187     H      0.376210000000     0.446440000000     0.863870000000     0.0353976  
H188     H      0.386540000000     0.480240000000     0.862280000000     0.0562677  
H189     H      0.400120000000     0.505510000000     0.881840000000     0.0560939  
H190     H      0.411170000000     0.538660000000     0.875760000000     0.0354655  
H191     H      0.351090000000     0.558200000000     0.871320000000     0.0354814  
H192     H      0.339390000000     0.524820000000     0.876510000000     0.0559094  
H193     H      0.112190000000     0.984840000000     0.908180000000     0.0562835  
H194     H      0.124810000000     0.951550000000     0.910420000000     0.0359361  
H195     H      0.171290000000     0.965620000000     0.869460000000     0.0352568  
H196     H      0.159060000000     0.999070000000     0.866900000000     0.0564895  
H197     H      0.152720000000     0.030560000000     0.885800000000     0.056513   
H198     H      0.137640000000     0.061920000000     0.877250000000     0.0360517  
H199     H      0.081020000000     0.034190000000     0.871570000000     0.0353028  
H200     H      0.095550000000     0.002790000000     0.880130000000     0.0571339  
H201     H      0.264290000000     0.890920000000     0.912870000000     0.0561718  
H202     H      0.229700000000     0.900280000000     0.911530000000     0.0354766  
H203     H      0.225150000000     0.877700000000     0.852210000000     0.0355154  
H204     H      0.259930000000     0.868560000000     0.852810000000     0.0558807  
H205     H      0.279170000000     0.843650000000     0.869010000000     0.0565418  
H206     H      0.311240000000     0.829040000000     0.875420000000     0.036424   
H207     H      0.329340000000     0.880220000000     0.907500000000     0.0349394  
H208     H      0.297510000000     0.895570000000     0.900920000000     0.0557013  
H209     H      0.388970000000     0.602500000000     0.715980000000     0.0563895  
H210     H      0.375930000000     0.594680000000     0.683130000000     0.0360524  
H211     H      0.322340000000     0.573300000000     0.709410000000     0.0352266  
H212     H      0.334960000000     0.580660000000     0.742370000000     0.0563876  
H213     H      0.343500000000     0.608330000000     0.763640000000     0.0562991  
H214     H      0.355780000000     0.612910000000     0.797230000000     0.035832   
H215     H      0.412520000000     0.590550000000     0.780030000000     0.0357837  
H216     H      0.400580000000     0.585470000000     0.746210000000     0.0562821  
H217     H      0.350410000000     0.642510000000     0.532670000000     0.0565117  
H218     H      0.354160000000     0.654670000000     0.498860000000     0.0357111  
H219     H      0.390000000000     0.605020000000     0.483960000000     0.0356963  
H220     H      0.386840000000     0.592610000000     0.517690000000     0.0560832  
H221     H      0.359120000000     0.578050000000     0.535710000000     0.0566032  
H222     H      0.349020000000     0.563830000000     0.567150000000     0.0353597  
H223     H      0.355700000000     0.619420000000     0.595960000000     0.0358748  
H224     H      0.366130000000     0.634180000000     0.564630000000     0.0561289  
H225     H      0.268630000000     0.602370000000     0.434250000000     0.0566529  
H226     H      0.300100000000     0.617680000000     0.441730000000     0.0354673  
H227     H      0.319050000000     0.609510000000     0.381440000000     0.0350239  
H228     H      0.287530000000     0.593910000000     0.373410000000     0.0562137  
H229     H      0.252120000000     0.603680000000     0.370570000000     0.0566509  
H230     H      0.218380000000     0.592490000000     0.365120000000     0.0364321  
H231     H      0.220250000000     0.559750000000     0.419500000000     0.035134   
H232     H      0.254070000000     0.570500000000     0.425310000000     0.0562048  
H233     H      0.111790000000     0.583440000000     0.483540000000     0.0565219  
H234     H      0.119440000000     0.568590000000     0.451690000000     0.0364325  
H235     H      0.144340000000     0.622610000000     0.431070000000     0.0349803  
H236     H      0.136430000000     0.638160000000     0.462660000000     0.0558318  
H237     H      0.148280000000     0.636840000000     0.496460000000     0.0561827  
H238     H      0.144710000000     0.648110000000     0.530540000000     0.0353502  
H239     H      0.089290000000     0.618020000000     0.535500000000     0.0354326  
H240     H      0.092080000000     0.606910000000     0.501260000000     0.0560852  
H241     H      0.999880000000     0.640900000000     0.665560000000     0.0561001  
H242     H      0.965540000000     0.634430000000     0.674170000000     0.0352366  
H243     H      0.967060000000     0.580990000000     0.640760000000     0.0367081  
H244     H      0.001400000000     0.587090000000     0.631750000000     0.0559711  
H245     H      0.036080000000     0.590690000000     0.644620000000     0.0563578  
H246     H      0.068450000000     0.599250000000     0.630950000000     0.0350564  
H247     H      0.048570000000     0.657940000000     0.620470000000     0.0353271  
H248     H      0.016300000000     0.649940000000     0.633890000000     0.0566347  
H249     H      0.199530000000     0.579580000000     0.603060000000     0.0563452  
H250     H      0.166870000000     0.592680000000     0.595660000000     0.0353165  
H251     H      0.173030000000     0.634680000000     0.642640000000     0.0359356  
H252     H      0.205600000000     0.621780000000     0.650620000000     0.0561539  
H253     H      0.237780000000     0.622890000000     0.633950000000     0.056539   
H254     H      0.271970000000     0.612750000000     0.637440000000     0.0356618  
H255     H      0.255060000000     0.552610000000     0.630910000000     0.0358462  
H256     H      0.220470000000     0.562280000000     0.627530000000     0.0561934  
H257     H      0.723500000000     0.385730000000     0.596550000000     0.0563484  
H258     H      0.757700000000     0.396540000000     0.599410000000     0.0351858  
H259     H      0.761230000000     0.372080000000     0.658030000000     0.036012   
H260     H      0.727040000000     0.361220000000     0.655750000000     0.0563218  
H261     H      0.710950000000     0.335330000000     0.635930000000     0.0569646  
H262     H      0.679670000000     0.319500000000     0.628630000000     0.0359953  
H263     H      0.657770000000     0.372370000000     0.602260000000     0.0350816  
H264     H      0.689040000000     0.388780000000     0.609450000000     0.0560555  
H265     H      0.402330000000     0.368340000000     0.770630000000     0.0560365  
H266     H      0.412820000000     0.363890000000     0.736240000000     0.0358105  
H267     H      0.354420000000     0.345110000000     0.720330000000     0.036145   
H268     H      0.343610000000     0.348800000000     0.754490000000     0.0559399  
H269     H      0.336500000000     0.374960000000     0.776890000000     0.0561921  
H270     H      0.325290000000     0.382250000000     0.810280000000     0.035666   
H271     H      0.379740000000     0.360500000000     0.834360000000     0.03577    
H272     H      0.391320000000     0.352470000000     0.800990000000     0.0560857  
H273     H      0.506250000000     0.336080000000     0.666490000000     0.0563048  
H274     H      0.472080000000     0.341130000000     0.677170000000     0.035735   
H275     H      0.454450000000     0.350300000000     0.616610000000     0.0361701  
H276     H      0.488230000000     0.345570000000     0.605550000000     0.0565261  
H277     H      0.511070000000     0.317730000000     0.603420000000     0.0564566  
H278     H      0.544250000000     0.311050000000     0.591600000000     0.0359357  
H279     H      0.568640000000     0.345950000000     0.638600000000     0.0354161  
H280     H      0.535370000000     0.353100000000     0.650830000000     0.0563737  
H281     H      0.396030000000     0.453910000000     0.641530000000     0.0560705  
H282     H      0.407590000000     0.420790000000     0.646720000000     0.0354778  
H283     H      0.347950000000     0.399550000000     0.645830000000     0.035352   
H284     H      0.335670000000     0.432820000000     0.641510000000     0.0559466  
H285     H      0.332700000000     0.461310000000     0.621010000000     0.0559288  
H286     H      0.321550000000     0.495260000000     0.620100000000     0.0359614  
H287     H      0.369380000000     0.512020000000     0.658340000000     0.0353151  
H288     H      0.380400000000     0.478440000000     0.660270000000     0.0559863  
H289     H      0.397410000000     0.889160000000     0.245490000000     0.0563864  
H290     H      0.407040000000     0.883080000000     0.279830000000     0.0350693  
H291     H      0.376260000000     0.828200000000     0.278980000000     0.0363659  
H292     H      0.366380000000     0.833850000000     0.244610000000     0.0568426  
H293     H      0.378990000000     0.838380000000     0.209270000000     0.0565383  
H294     H      0.364220000000     0.846310000000     0.177080000000     0.0357175  
H295     H      0.349680000000     0.903790000000     0.198110000000     0.0353458  
H296     H      0.364290000000     0.896410000000     0.230190000000     0.0567715  
H297     H      0.501300000000     0.868370000000     0.373690000000     0.0569853  
H298     H      0.467220000000     0.873440000000     0.362790000000     0.0361633  
H299     H      0.461630000000     0.812230000000     0.349830000000     0.0350187  
H300     H      0.495460000000     0.806690000000     0.360760000000     0.0566119  
H301     H      0.511300000000     0.809190000000     0.395290000000     0.0569541  
H302     H      0.543770000000     0.802810000000     0.409230000000     0.0356752  
H303     H      0.568420000000     0.849770000000     0.374910000000     0.0359213  
H304     H      0.535790000000     0.856720000000     0.360770000000     0.0567408  
H305     H      0.393420000000     0.745010000000     0.419960000000     0.0561389  
H306     H      0.391020000000     0.711340000000     0.431400000000     0.0354757  
H307     H      0.337850000000     0.703410000000     0.397620000000     0.0353992  
H308     H      0.339460000000     0.737150000000     0.386300000000     0.056112   
H309     H      0.359770000000     0.755140000000     0.363440000000     0.056552   
H310     H      0.366870000000     0.786490000000     0.348220000000     0.0367973  
H311     H      0.387140000000     0.808990000000     0.404140000000     0.0348686  
H312     H      0.379760000000     0.777780000000     0.420080000000     0.0557659  
H313     H      0.328580000000     0.958420000000     0.344990000000     0.055981   
H314     H      0.317540000000     0.992220000000     0.347640000000     0.0352212  
H315     H      0.344620000000     0.996990000000     0.405080000000     0.0354925  
H316     H      0.355330000000     0.963130000000     0.403260000000     0.0559491  
H317     H      0.379750000000     0.944990000000     0.385640000000     0.0563871  
H318     H      0.394560000000     0.913230000000     0.379700000000     0.0365113  
H319     H      0.341730000000     0.893710000000     0.350570000000     0.0349549  
H320     H      0.326130000000     0.925260000000     0.356770000000     0.055793   
H321     H      0.872840000000     0.971600000000     0.345600000000     0.0561865  
H322     H      0.863090000000     0.937590000000     0.347110000000     0.0352978  
H323     H      0.824220000000     0.949920000000     0.395920000000     0.035882   
H324     H      0.834120000000     0.984320000000     0.395170000000     0.0559646  
H325     H      0.832740000000     0.014680000000     0.375570000000     0.0562399  
H326     H      0.844320000000     0.048330000000     0.371590000000     0.0355057  
H327     H      0.903090000000     0.027560000000     0.360280000000     0.0357512  
H328     H      0.892270000000     0.994090000000     0.364710000000     0.0560742  
H329     H      0.723850000000     0.881840000000     0.387320000000     0.0562527  
H330     H      0.757990000000     0.892420000000     0.382350000000     0.0355806  
H331     H      0.775920000000     0.832880000000     0.373380000000     0.0358484  
H332     H      0.742120000000     0.821890000000     0.377890000000     0.0563149  
H333     H      0.694400000000     0.866450000000     0.371330000000     0.056277   
H334     H      0.661380000000     0.854680000000     0.380070000000     0.0358325  
H335     H      0.686960000000     0.808230000000     0.414400000000     0.0358031  
H336     H      0.719860000000     0.819620000000     0.406230000000     0.0564399  
H337     H      0.862130000000     0.811700000000     0.450030000000     0.0561954  
H338     H      0.852550000000     0.825810000000     0.418150000000     0.0355965  
H339     H      0.860790000000     0.883610000000     0.441570000000     0.0353929  
H340     H      0.870330000000     0.870030000000     0.473560000000     0.0568123  
H341     H      0.895730000000     0.850350000000     0.491160000000     0.0563757  
H342     H      0.898990000000     0.839660000000     0.525550000000     0.0360143  
H343     H      0.850340000000     0.800090000000     0.518000000000     0.035276   
H344     H      0.846610000000     0.810510000000     0.483600000000     0.0565054  
H345     H      0.615430000000     0.229180000000     0.146250000000     0.0567746  
H346     H      0.616240000000     0.195190000000     0.136150000000     0.0361463  
H347     H      0.619050000000     0.212220000000     0.074830000000     0.0353785  
H348     H      0.618590000000     0.246670000000     0.084490000000     0.0560156  
H349     H      0.634610000000     0.259030000000     0.148030000000     0.0562547  
H350     H      0.627560000000     0.291550000000     0.160860000000     0.0361772  
H351     H      0.588700000000     0.302610000000     0.111740000000     0.0351381  
H352     H      0.595050000000     0.270000000000     0.098700000000     0.056193   
H353     H      0.655560000000     0.457780000000     0.161510000000     0.0562778  
H354     H      0.665050000000     0.492000000000     0.159540000000     0.0352641  
H355     H      0.638230000000     0.496620000000     0.101950000000     0.0358493  
H356     H      0.628860000000     0.462270000000     0.103200000000     0.0560592  
H357     H      0.604550000000     0.443780000000     0.121760000000     0.0567336  
H358     H      0.590070000000     0.412110000000     0.129030000000     0.0365986  
H359     H      0.644230000000     0.393220000000     0.156070000000     0.0349622  
H360     H      0.659400000000     0.424730000000     0.148660000000     0.0558952  
H361     H      0.631440000000     0.643190000000     0.029220000000     0.0559801  
H362     H      0.628030000000     0.653580000000     0.994710000000     0.036176   
H363     H      0.616430000000     0.594390000000     0.977020000000     0.0355556  
H364     H      0.620080000000     0.583470000000     0.011150000000     0.0564535  
H365     H      0.605340000000     0.584580000000     0.044040000000     0.0561271  
H366     H      0.613590000000     0.570910000000     0.076420000000     0.0357837  
H367     H      0.662240000000     0.610810000000     0.081790000000     0.0354847  
H368     H      0.654680000000     0.624540000000     0.049330000000     0.0563957  
H369     H      0.764290000000     0.388240000000     0.394500000000     0.0564687  
H370     H      0.730830000000     0.400900000000     0.391000000000     0.0363395  
H371     H      0.712650000000     0.347580000000     0.362760000000     0.0352295  
H372     H      0.746000000000     0.334630000000     0.365630000000     0.0560747  
H373     H      0.765880000000     0.322950000000     0.393170000000     0.0563473  
H374     H      0.797660000000     0.309200000000     0.402250000000     0.0354311  
H375     H      0.826390000000     0.363240000000     0.387540000000     0.0359323  
H376     H      0.794690000000     0.377470000000     0.377960000000     0.0561543  
H377     H      0.665040000000     0.355790000000     0.481110000000     0.0567119  
H378     H      0.672420000000     0.371170000000     0.449410000000     0.0354228  
H379     H      0.615160000000     0.355230000000     0.427280000000     0.0358711  
H380     H      0.607210000000     0.339770000000     0.459070000000     0.0565866  
H381     H      0.601950000000     0.351590000000     0.494800000000     0.0567891  
H382     H      0.595860000000     0.340200000000     0.528580000000     0.0357862  
H383     H      0.651850000000     0.310710000000     0.529030000000     0.0352891  
H384     H      0.658430000000     0.321970000000     0.495280000000     0.056544   
H385     H      0.629100000000     0.396940000000     0.279060000000     0.0565463  
H386     H      0.643590000000     0.404050000000     0.311240000000     0.0354806  
H387     H      0.620400000000     0.350390000000     0.334730000000     0.0358221  
H388     H      0.605550000000     0.342820000000     0.302500000000     0.0563699  
H389     H      0.616600000000     0.334450000000     0.267880000000     0.056566   
H390     H      0.605740000000     0.328560000000     0.233840000000     0.0361159  
H391     H      0.585590000000     0.387900000000     0.229260000000     0.0349947  
H392     H      0.596120000000     0.394230000000     0.263230000000     0.0562333  
H393     H      0.451670000000     0.587290000000     0.399270000000     0.0562084  
H394     H      0.419760000000     0.596610000000     0.413130000000     0.0359037  
H395     H      0.419370000000     0.648560000000     0.377340000000     0.035291   
H396     H      0.451330000000     0.639780000000     0.363330000000     0.0563768  
H397     H      0.469030000000     0.615830000000     0.342270000000     0.056337   
H398     H      0.503070000000     0.610630000000     0.331560000000     0.0361143  
H399     H      0.519500000000     0.594650000000     0.390980000000     0.0354815  
H400     H      0.485750000000     0.599850000000     0.402190000000     0.0565019  
H401     H      0.632720000000     0.611230000000     0.221580000000     0.0561493  
H402     H      0.646650000000     0.603290000000     0.189200000000     0.0357492  
H403     H      0.608440000000     0.553420000000     0.184680000000     0.0354633  
H404     H      0.594500000000     0.560630000000     0.217160000000     0.0561847  
H405     H      0.574640000000     0.582980000000     0.236780000000     0.0561215  
H406     H      0.563780000000     0.586850000000     0.271110000000     0.0360443  
H407     H      0.622830000000     0.601800000000     0.288710000000     0.0355335  
H408     H      0.634250000000     0.597670000000     0.254770000000     0.0564414  
H409     H      0.639100000000     0.526250000000     0.386400000000     0.0562477  
H410     H      0.624610000000     0.557480000000     0.376500000000     0.0360977  
H411     H      0.573430000000     0.527770000000     0.354000000000     0.0354893  
H412     H      0.587480000000     0.496450000000     0.363460000000     0.0564458  
H413     H      0.596590000000     0.476590000000     0.392340000000     0.0561747  
H414     H      0.610440000000     0.443990000000     0.396250000000     0.0352508  
H415     H      0.666400000000     0.464160000000     0.374340000000     0.0362398  
H416     H      0.652930000000     0.496930000000     0.369970000000     0.0564561  
H417     H      0.615770000000     0.676790000000     0.402840000000     0.05629    
H418     H      0.606690000000     0.644400000000     0.390600000000     0.0359852  
H419     H      0.580260000000     0.670180000000     0.338880000000     0.0354897  
H420     H      0.588720000000     0.702600000000     0.350760000000     0.0561401  
H421     H      0.616610000000     0.723970000000     0.356550000000     0.0560879  
H422     H      0.621250000000     0.757260000000     0.368290000000     0.0352285  
H423     H      0.605410000000     0.739800000000     0.427440000000     0.0363429  
H424     H      0.600180000000     0.706350000000     0.416100000000     0.056347   
H425     H      0.902270000000     0.870190000000     0.263990000000     0.056435   
H426     H      0.913550000000     0.866480000000     0.229740000000     0.0355143  
H427     H      0.865210000000     0.827650000000     0.217580000000     0.0359149  
H428     H      0.853630000000     0.830940000000     0.251630000000     0.0565422  
H429     H      0.838460000000     0.858050000000     0.270910000000     0.0567209  
H430     H      0.825390000000     0.865040000000     0.303780000000     0.0354285  
H431     H      0.883350000000     0.859170000000     0.328980000000     0.0355998  
H432     H      0.896970000000     0.852050000000     0.296140000000     0.056483   
H433     H      0.835780000000     0.925310000000     0.147050000000     0.0559544  
H434     H      0.849190000000     0.892690000000     0.152350000000     0.0353403  
H435     H      0.904190000000     0.910160000000     0.126090000000     0.0356674  
H436     H      0.891090000000     0.942630000000     0.119830000000     0.0559144  
H437     H      0.883550000000     0.970720000000     0.138930000000     0.0560728  
H438     H      0.871740000000     0.004090000000     0.137300000000     0.0358124  
H439     H      0.813270000000     0.983890000000     0.123630000000     0.0360224  
H440     H      0.824760000000     0.950080000000     0.124450000000     0.0559081  
H441     H      0.481860000000     0.822740000000     0.842930000000     0.0561279  
H442     H      0.516220000000     0.824660000000     0.832310000000     0.0352217  
H443     H      0.523130000000     0.878960000000     0.863510000000     0.0355443  
H444     H      0.488780000000     0.877770000000     0.874000000000     0.0561715  
H445     H      0.470230000000     0.858430000000     0.897470000000     0.0566204  
H446     H      0.437980000000     0.852640000000     0.912040000000     0.0367265  
H447     H      0.416480000000     0.830630000000     0.856370000000     0.0349823  
H448     H      0.448640000000     0.836600000000     0.841100000000     0.0558505  
H449     H      0.628580000000     0.756380000000     0.854560000000     0.0560337  
H450     H      0.621220000000     0.788460000000     0.841020000000     0.0358175  
H451     H      0.587720000000     0.802880000000     0.893140000000     0.0352047  
H452     H      0.594230000000     0.770560000000     0.906920000000     0.0560623  
H453     H      0.618200000000     0.747840000000     0.920190000000     0.0559923  
H454     H      0.620910000000     0.714100000000     0.931690000000     0.0361307  
H455     H      0.614250000000     0.693410000000     0.871850000000     0.0354399  
H456     H      0.610920000000     0.726690000000     0.859960000000     0.0561997  
H457     H      0.752160000000     0.835760000000     0.629230000000     0.0565673  
H458     H      0.718250000000     0.846870000000     0.633140000000     0.0354776  
H459     H      0.734920000000     0.904650000000     0.614730000000     0.0361271  
H460     H      0.769110000000     0.894050000000     0.610860000000     0.0563118  
H461     H      0.787340000000     0.872660000000     0.587920000000     0.0565171  
H462     H      0.819470000000     0.858750000000     0.580120000000     0.035381   
H463     H      0.818180000000     0.825130000000     0.633950000000     0.0355175  
H464     H      0.786010000000     0.838960000000     0.642360000000     0.0561265  
H465     H      0.644740000000     0.881370000000     0.521550000000     0.0563379  
H466     H      0.654790000000     0.894680000000     0.553450000000     0.0353901  
H467     H      0.629210000000     0.845420000000     0.583450000000     0.0362202  
H468     H      0.618560000000     0.831800000000     0.551720000000     0.0562829  
H469     H      0.632840000000     0.817020000000     0.521960000000     0.0564995  
H470     H      0.626090000000     0.803940000000     0.488980000000     0.0362323  
H471     H      0.609680000000     0.861100000000     0.468480000000     0.0353598  
H472     H      0.615870000000     0.874590000000     0.501330000000     0.0561509  
H473     H      0.651340000000     0.876680000000     0.730840000000     0.0563244  
H474     H      0.664410000000     0.886630000000     0.698810000000     0.0351979  
H475     H      0.615750000000     0.858860000000     0.669190000000     0.0362513  
H476     H      0.602320000000     0.848390000000     0.701140000000     0.0562607  
H477     H      0.587000000000     0.862860000000     0.731120000000     0.0563624  
H478     H      0.574570000000     0.856890000000     0.764620000000     0.0355162  
H479     H      0.633010000000     0.841980000000     0.784210000000     0.0358496  
H480     H      0.645820000000     0.847470000000     0.750970000000     0.0562887  
H481     H      0.993460000000     0.852770000000     0.612730000000     0.0563214  
H482     H      0.027080000000     0.857860000000     0.624310000000     0.0356886  
H483     H      0.010140000000     0.841200000000     0.683390000000     0.0361067  
H484     H      0.976180000000     0.836240000000     0.672360000000     0.0560143  
H485     H      0.957920000000     0.813180000000     0.651510000000     0.0563592  
H486     H      0.925880000000     0.805000000000     0.637380000000     0.0354253  
H487     H      0.927800000000     0.856410000000     0.600870000000     0.0357857  
H488     H      0.959750000000     0.865240000000     0.614940000000     0.0561849  
H489     H      0.138740000000     0.851960000000     0.762870000000     0.0566077  
H490     H      0.127820000000     0.847600000000     0.728690000000     0.0355462  
H491     H      0.069560000000     0.866980000000     0.744410000000     0.0360199  
H492     H      0.080000000000     0.871460000000     0.778810000000     0.0563147  
H493     H      0.102650000000     0.894690000000     0.796060000000     0.0566256  
H494     H      0.116390000000     0.903000000000     0.828350000000     0.0352032  
H495     H      0.147710000000     0.848450000000     0.830000000000     0.035287   
H496     H      0.134130000000     0.839630000000     0.797590000000     0.0563545  
H497     H      0.102630000000     0.752590000000     0.662730000000     0.0565767  
H498     H      0.093600000000     0.784360000000     0.675860000000     0.0356739  
H499     H      0.112070000000     0.811900000000     0.621650000000     0.0358122  
H500     H      0.121500000000     0.780090000000     0.607990000000     0.0562027  
H501     H      0.104830000000     0.749490000000     0.596830000000     0.0563827  
H502     H      0.108460000000     0.715850000000     0.585300000000     0.035609   
H503     H      0.134450000000     0.699660000000     0.641100000000     0.0359754  
H504     H      0.131350000000     0.733090000000     0.652940000000     0.0561619  
H505     H      0.143170000000     0.933600000000     0.636300000000     0.0562734  
H506     H      0.130670000000     0.900960000000     0.644170000000     0.0358478  
H507     H      0.077080000000     0.926000000000     0.666880000000     0.0356151  
H508     H      0.089120000000     0.958590000000     0.659530000000     0.0562943  
H509     H      0.096480000000     0.979470000000     0.631220000000     0.0564101  
H510     H      0.107570000000     0.012920000000     0.626710000000     0.0358883  
H511     H      0.165250000000     0.997630000000     0.648180000000     0.0356696  
H512     H      0.154480000000     0.963900000000     0.653230000000     0.0563289  
H513     H      0.372090000000     0.114500000000     0.452450000000     0.0563368  
H514     H      0.361570000000     0.101420000000     0.420280000000     0.0352685  
H515     H      0.321280000000     0.062480000000     0.449610000000     0.0360302  
H516     H      0.331220000000     0.075210000000     0.481680000000     0.0567362  
H517     H      0.358400000000     0.134260000000     0.480710000000     0.0565661  
H518     H      0.364420000000     0.146750000000     0.514190000000     0.0360662  
H519     H      0.365610000000     0.088130000000     0.536930000000     0.0354889  
H520     H      0.359940000000     0.075220000000     0.503820000000     0.0563929  
H521     H      0.369290000000     0.251530000000     0.658030000000     0.0557557  
H522     H      0.375770000000     0.284230000000     0.670150000000     0.035397   
H523     H      0.384140000000     0.304750000000     0.610510000000     0.0355238  
H524     H      0.378980000000     0.271810000000     0.597770000000     0.0556016  
H525     H      0.358500000000     0.244920000000     0.591290000000     0.0557177  
H526     H      0.356970000000     0.211120000000     0.579850000000     0.0358903  
H527     H      0.383590000000     0.191690000000     0.634240000000     0.0353324  
H528     H      0.386440000000     0.225060000000     0.645630000000     0.0558513  
H529     H      0.258880000000     0.068180000000     0.617730000000     0.0563275  
H530     H      0.225040000000     0.057060000000     0.623220000000     0.0360261  
H531     H      0.206740000000     0.116020000000     0.634960000000     0.0358882  
H532     H      0.240300000000     0.127530000000     0.630060000000     0.0561746  
H533     H      0.262230000000     0.131660000000     0.602120000000     0.0562401  
H534     H      0.294950000000     0.143350000000     0.593620000000     0.0356246  
H535     H      0.321220000000     0.094660000000     0.623980000000     0.0359683  
H536     H      0.288450000000     0.082640000000     0.633150000000     0.0562351  
H537     H      0.493660000000     0.100100000000     0.604080000000     0.0561932  
H538     H      0.526880000000     0.096030000000     0.616970000000     0.0360836  
H539     H      0.506000000000     0.105720000000     0.676370000000     0.0354178  
H540     H      0.472480000000     0.110460000000     0.663880000000     0.0562644  
H541     H      0.443730000000     0.095630000000     0.647820000000     0.0561373  
H542     H      0.411380000000     0.104470000000     0.634490000000     0.0362342  
H543     H      0.439100000000     0.135190000000     0.586370000000     0.035512   
H544     H      0.471450000000     0.127080000000     0.599410000000     0.0563303  
H545     H      0.598940000000     0.009890000000     0.618320000000     0.0562122  
H546     H      0.585320000000     0.041740000000     0.626390000000     0.0358489  
H547     H      0.634130000000     0.053300000000     0.665350000000     0.0350837  
H548     H      0.647880000000     0.021130000000     0.658200000000     0.0561452  
H549     H      0.662880000000     0.999330000000     0.634620000000     0.0558583  
H550     H      0.673940000000     0.965570000000     0.630950000000     0.0360698  
H551     H      0.613740000000     0.945910000000     0.630020000000     0.0354538  
H552     H      0.602200000000     0.979170000000     0.634320000000     0.0560769  
H553     H      0.585970000000     0.204690000000     0.653690000000     0.0566636  
H554     H      0.577420000000     0.172320000000     0.665490000000     0.0359873  
H555     H      0.618260000000     0.146490000000     0.624350000000     0.0351343  
H556     H      0.627300000000     0.179030000000     0.612110000000     0.0564041  
H557     H      0.614590000000     0.227200000000     0.654320000000     0.0565996  
H558     H      0.618770000000     0.260540000000     0.642660000000     0.0358486  
H559     H      0.615940000000     0.241000000000     0.582120000000     0.0355526  
H560     H      0.611520000000     0.207280000000     0.593370000000     0.056601   
H561     H      0.765310000000     0.111790000000     0.923480000000     0.0567946  
H562     H      0.796930000000     0.127120000000     0.930370000000     0.0355859  
H563     H      0.822990000000     0.097520000000     0.880590000000     0.0359281  
H564     H      0.791260000000     0.081930000000     0.873170000000     0.056672   
H565     H      0.756420000000     0.092620000000     0.862110000000     0.0568684  
H566     H      0.722880000000     0.080670000000     0.856460000000     0.0362585  
H567     H      0.717620000000     0.065650000000     0.918170000000     0.0349969  
H568     H      0.750990000000     0.077520000000     0.924300000000     0.0565081  
H569     H      0.620990000000     0.948610000000     0.832940000000     0.0568472  
H570     H      0.606120000000     0.917300000000     0.825110000000     0.0353975  
H571     H      0.620470000000     0.895790000000     0.883280000000     0.0350836  
H572     H      0.635510000000     0.927320000000     0.891700000000     0.0564727  
H573     H      0.623200000000     0.962370000000     0.896490000000     0.0567899  
H574     H      0.632980000000     0.996250000000     0.902090000000     0.0362483  
H575     H      0.663850000000     0.996920000000     0.846380000000     0.0349009  
H576     H      0.654360000000     0.963080000000     0.840350000000     0.0562999  
H577     H      0.614160000000     0.121590000000     0.765540000000     0.0559233  
H578     H      0.603910000000     0.125030000000     0.731150000000     0.0356984  
H579     H      0.574900000000     0.069290000000     0.733480000000     0.0351583  
H580     H      0.585520000000     0.064980000000     0.767800000000     0.0559029  
H581     H      0.583360000000     0.075190000000     0.801990000000     0.055773   
H582     H      0.598510000000     0.067810000000     0.834020000000     0.0348978  
H583     H      0.652180000000     0.095800000000     0.815490000000     0.0366199  
H584     H      0.637850000000     0.102870000000     0.783290000000     0.056418   
H585     H      0.612790000000     0.079240000000     0.974500000000     0.0565059  
H586     H      0.620580000000     0.064580000000     0.942660000000     0.0368064  
H587     H      0.644250000000     0.119090000000     0.921880000000     0.0348272  
H588     H      0.636190000000     0.134480000000     0.953590000000     0.0557214  
H589     H      0.648060000000     0.133300000000     0.987620000000     0.0560609  
H590     H      0.644120000000     0.144230000000     0.021840000000     0.0353394  
H591     H      0.589320000000     0.112970000000     0.026260000000     0.0355232  
H592     H      0.592460000000     0.102230000000     0.991980000000     0.0560799  
H593     H      0.826870000000     0.621290000000     0.994840000000     0.0559148  
H594     H      0.833140000000     0.632420000000     0.028610000000     0.0354494  
H595     H      0.891060000000     0.606910000000     0.026950000000     0.0364978  
H596     H      0.885240000000     0.595530000000     0.993050000000     0.0562189  
H597     H      0.878600000000     0.607050000000     0.957550000000     0.0565398  
H598     H      0.870500000000     0.592440000000     0.925360000000     0.0357999  
H599     H      0.814500000000     0.573380000000     0.948220000000     0.0354153  
H600     H      0.822060000000     0.587770000000     0.980300000000     0.0567311  
H601     H      0.911220000000     0.728310000000     0.100400000000     0.0565415  
H602     H      0.905930000000     0.694300000000     0.091090000000     0.0350747  
H603     H      0.844500000000     0.699190000000     0.106180000000     0.0363011  
H604     H      0.849310000000     0.733360000000     0.115550000000     0.0570182  
H605     H      0.859770000000     0.767470000000     0.102300000000     0.0566492  
H606     H      0.866240000000     0.799750000000     0.116740000000     0.0352566  
H607     H      0.915800000000     0.776400000000     0.148730000000     0.0355233  
H608     H      0.909900000000     0.744330000000     0.134520000000     0.0569888  
H609     H      0.757550000000     0.590140000000     0.158510000000     0.0561055  
H610     H      0.722980000000     0.580470000000     0.161020000000     0.0358194  
H611     H      0.725920000000     0.553990000000     0.103280000000     0.0352955  
H612     H      0.760280000000     0.563750000000     0.100080000000     0.0563431  
H613     H      0.794020000000     0.560050000000     0.111790000000     0.0558797  
H614     H      0.825580000000     0.575090000000     0.103360000000     0.0349701  
H615     H      0.807320000000     0.628670000000     0.131010000000     0.0365531  
H616     H      0.775560000000     0.614300000000     0.139310000000     0.0567     
H617     H      0.379170000000     0.204270000000     0.157250000000     0.0566112  
H618     H      0.387040000000     0.172070000000     0.170270000000     0.0353165  
H619     H      0.369570000000     0.145700000000     0.115120000000     0.036023   
H620     H      0.361430000000     0.177850000000     0.101590000000     0.0562691  
H621     H      0.380390000000     0.207550000000     0.091490000000     0.0564544  
H622     H      0.378590000000     0.241220000000     0.079700000000     0.0359067  
H623     H      0.350070000000     0.258540000000     0.133870000000     0.0355046  
H624     H      0.351460000000     0.225060000000     0.146020000000     0.0562455  
H625     H      0.354800000000     0.316950000000     0.986280000000     0.0564902  
H626     H      0.357830000000     0.304580000000     0.020080000000     0.0359191  
H627     H      0.395820000000     0.352550000000     0.035270000000     0.0354524  
H628     H      0.393350000000     0.365180000000     0.001540000000     0.0561292  
H629     H      0.366800000000     0.380850000000     0.982630000000     0.0564636  
H630     H      0.357630000000     0.395010000000     0.950860000000     0.0353364  
H631     H      0.362270000000     0.338770000000     0.922950000000     0.0359356  
H632     H      0.371720000000     0.324070000000     0.954610000000     0.0561253  
H633     H      0.487600000000     0.311080000000     0.161230000000     0.0563092  
H634     H      0.521620000000     0.316940000000     0.171510000000     0.0350719  
H635     H      0.521000000000     0.372710000000     0.142270000000     0.0365045  
H636     H      0.487030000000     0.367270000000     0.131660000000     0.0567244  
H637     H      0.452080000000     0.362790000000     0.143140000000     0.0564133  
H638     H      0.420140000000     0.355420000000     0.127920000000     0.0353085  
H639     H      0.440220000000     0.297610000000     0.113460000000     0.035344   
H640     H      0.472120000000     0.304470000000     0.128410000000     0.0567814  
H641     H      0.977980000000     0.333400000000     0.346130000000     0.0562279  
H642     H      0.011790000000     0.338950000000     0.334840000000     0.035901   
H643     H      0.027510000000     0.361000000000     0.392430000000     0.0358555  
H644     H      0.993910000000     0.355910000000     0.404070000000     0.0562814  
H645     H      0.973190000000     0.327660000000     0.411950000000     0.0564897  
H646     H      0.940390000000     0.319550000000     0.424070000000     0.0353605  
H647     H      0.914620000000     0.341130000000     0.370080000000     0.0361808  
H648     H      0.947340000000     0.349680000000     0.357530000000     0.0564437  
H649     H      0.104230000000     0.455650000000     0.346640000000     0.0569684  
H650     H      0.089810000000     0.423770000000     0.340170000000     0.0355652  
H651     H      0.126690000000     0.397970000000     0.384970000000     0.0357313  
H652     H      0.141330000000     0.430020000000     0.392030000000     0.0567449  
H653     H      0.129300000000     0.463950000000     0.405540000000     0.057018   
H654     H      0.140200000000     0.497620000000     0.410860000000     0.036224   
H655     H      0.149530000000     0.504640000000     0.348170000000     0.0350364  
H656     H      0.138560000000     0.471210000000     0.342380000000     0.056548   
H657     H      0.087120000000     0.226950000000     0.365990000000     0.0561884  
H658     H      0.088460000000     0.193260000000     0.376800000000     0.0355482  
H659     H      0.126540000000     0.209040000000     0.425200000000     0.035761   
H660     H      0.126100000000     0.243140000000     0.414320000000     0.0559319  
H661     H      0.105610000000     0.271990000000     0.411280000000     0.0558654  
H662     H      0.101490000000     0.305320000000     0.398940000000     0.0355733  
H663     H      0.101970000000     0.284260000000     0.338880000000     0.035602   
H664     H      0.106870000000     0.251090000000     0.350530000000     0.0561039  
H665     H      0.078920000000     0.580830000000     0.313940000000     0.0557648  
H666     H      0.095210000000     0.573470000000     0.345430000000     0.0348537  
H667     H      0.148340000000     0.601030000000     0.324750000000     0.0366896  
H668     H      0.132700000000     0.608370000000     0.293170000000     0.0568712  
H669     H      0.107080000000     0.627070000000     0.276160000000     0.0561742  
H670     H      0.096630000000     0.629160000000     0.241600000000     0.0358549  
H671     H      0.071570000000     0.571630000000     0.245160000000     0.035212   
H672     H      0.082070000000     0.568910000000     0.279630000000     0.05624    
H673     H      0.941340000000     0.618850000000     0.169570000000     0.0559605  
H674     H      0.910370000000     0.625720000000     0.152420000000     0.0349905  
H675     H      0.932200000000     0.597450000000     0.099880000000     0.0366191  
H676     H      0.963360000000     0.590620000000     0.116400000000     0.0569098  
H677     H      0.979850000000     0.572450000000     0.142810000000     0.0561019  
H678     H      0.013790000000     0.570560000000     0.154680000000     0.0359682  
H679     H      0.009120000000     0.628330000000     0.179150000000     0.0353694  
H680     H      0.975300000000     0.630860000000     0.167210000000     0.0561693  
H681     H      0.118860000000     0.864800000000     0.003960000000     0.0565069  
H682     H      0.114060000000     0.852950000000     0.037640000000     0.035547   
H683     H      0.136750000000     0.796660000000     0.021080000000     0.0359132  
H684     H      0.141560000000     0.808010000000     0.987030000000     0.0561884  
H685     H      0.163420000000     0.831090000000     0.969480000000     0.0563353  
H686     H      0.171210000000     0.846120000000     0.937640000000     0.0353806  
H687     H      0.115520000000     0.876130000000     0.937910000000     0.0356596  
H688     H      0.107130000000     0.861150000000     0.969660000000     0.0560774  
H689     H      0.107810000000     0.700890000000     0.092640000000     0.0561391  
H690     H      0.112150000000     0.734590000000     0.081590000000     0.0360778  
H691     H      0.121950000000     0.752900000000     0.141790000000     0.035526   
H692     H      0.117390000000     0.719570000000     0.153360000000     0.056426   
H693     H      0.131590000000     0.686810000000     0.153200000000     0.056072   
H694     H      0.122390000000     0.655220000000     0.167130000000     0.0357561  
H695     H      0.074790000000     0.650400000000     0.125290000000     0.0354062  
H696     H      0.083320000000     0.682060000000     0.111240000000     0.056312   
H697     H      0.223340000000     0.818980000000     0.114260000000     0.0564745  
H698     H      0.191820000000     0.804970000000     0.104650000000     0.0355074  
H699     H      0.161550000000     0.855920000000     0.126110000000     0.0359961  
H700     H      0.193000000000     0.870380000000     0.136160000000     0.0562598  
H701     H      0.222640000000     0.883800000000     0.119510000000     0.0565216  
H702     H      0.255780000000     0.897190000000     0.123430000000     0.0362733  
H703     H      0.276220000000     0.842300000000     0.146520000000     0.03525    
H704     H      0.243240000000     0.828540000000     0.143080000000     0.0562345  
H705     H      0.015260000000     0.818530000000     0.099130000000     0.0561611  
H706     H      0.048150000000     0.809450000000     0.088200000000     0.0354108  
H707     H      0.073670000000     0.840060000000     0.137620000000     0.0360047  
H708     H      0.040780000000     0.849740000000     0.148880000000     0.0562123  
H709     H      0.010590000000     0.835250000000     0.163090000000     0.0555188  
H710     H      0.976460000000     0.840800000000     0.173320000000     0.0361443  
H711     H      0.959930000000     0.851850000000     0.112780000000     0.0359715  
H712     H      0.993840000000     0.846830000000     0.102130000000     0.0561312  
H713     H      0.282400000000     0.367720000000     0.088390000000     0.0568378  
H714     H      0.314150000000     0.353360000000     0.079760000000     0.0351296  
H715     H      0.322250000000     0.334500000000     0.140050000000     0.0357738  
H716     H      0.290350000000     0.348640000000     0.149160000000     0.0565928  
H717     H      0.254570000000     0.340520000000     0.140210000000     0.056791   
H718     H      0.220690000000     0.351490000000     0.145390000000     0.0354275  
H719     H      0.233390000000     0.405270000000     0.115090000000     0.0360579  
H720     H      0.267370000000     0.394660000000     0.109560000000     0.0566826  
H721     H      0.142290000000     0.517670000000     0.173150000000     0.0562685  
H722     H      0.127940000000     0.549210000000     0.181540000000     0.0353673  
H723     H      0.089410000000     0.545650000000     0.131030000000     0.0357336  
H724     H      0.103700000000     0.514200000000     0.121950000000     0.0561117  
H725     H      0.102670000000     0.481110000000     0.135170000000     0.0564115  
H726     H      0.114480000000     0.447890000000     0.130390000000     0.0354802  
H727     H      0.173520000000     0.465850000000     0.144830000000     0.0360483  
H728     H      0.162260000000     0.499410000000     0.149410000000     0.0561167  
H729     H      0.146100000000     0.354380000000     0.260590000000     0.0561482  
H730     H      0.133270000000     0.349520000000     0.293920000000     0.0355844  
H731     H      0.074480000000     0.361770000000     0.273500000000     0.036109   
H732     H      0.086920000000     0.367170000000     0.239910000000     0.056247   
H733     H      0.102440000000     0.351980000000     0.210620000000     0.0562732  
H734     H      0.115820000000     0.360960000000     0.178150000000     0.0359804  
H735     H      0.164240000000     0.390480000000     0.206370000000     0.0356379  
H736     H      0.151200000000     0.382120000000     0.238840000000     0.0561606  
H737     H      0.096990000000     0.207270000000     0.856040000000     0.0562408  
H738     H      0.090780000000     0.174290000000     0.844440000000     0.0354935  
H739     H      0.112090000000     0.150900000000     0.899600000000     0.0357103  
H740     H      0.118940000000     0.183920000000     0.911630000000     0.0561497  
H741     H      0.101440000000     0.213630000000     0.922150000000     0.0561004  
H742     H      0.105140000000     0.247590000000     0.932730000000     0.0356474  
H743     H      0.126420000000     0.263170000000     0.874770000000     0.0361392  
H744     H      0.123400000000     0.229490000000     0.863900000000     0.0561353  
H745     H      0.119100000000     0.376830000000     0.008630000000     0.0561762  
H746     H      0.113690000000     0.365020000000     0.975090000000     0.0360729  
H747     H      0.133190000000     0.307690000000     0.992060000000     0.0358121  
H748     H      0.139270000000     0.319190000000     0.025880000000     0.0560401  
H749     H      0.124230000000     0.331700000000     0.056690000000     0.0562423  
H750     H      0.133270000000     0.344880000000     0.089220000000     0.0358201  
H751     H      0.155830000000     0.396820000000     0.061530000000     0.035755   
H752     H      0.147430000000     0.384060000000     0.029030000000     0.0563106  
H753     H      0.038460000000     0.339580000000     0.852650000000     0.0557437  
H754     H      0.071610000000     0.335160000000     0.866070000000     0.0354022  
H755     H      0.048530000000     0.336540000000     0.925430000000     0.0355095  
H756     H      0.015510000000     0.342000000000     0.912730000000     0.0558203  
H757     H      0.990300000000     0.324560000000     0.897280000000     0.0558158  
H758     H      0.956780000000     0.327220000000     0.885130000000     0.0353731  
H759     H      0.976600000000     0.361250000000     0.835420000000     0.036213   
H760     H      0.010470000000     0.359750000000     0.847710000000     0.0550841  
H761     H      0.198590000000     0.383510000000     0.894390000000     0.0557955  
H762     H      0.165330000000     0.370790000000     0.899910000000     0.0352953  
H763     H      0.188080000000     0.312260000000     0.901800000000     0.0356365  
H764     H      0.221130000000     0.324220000000     0.895440000000     0.0560655  
H765     H      0.246140000000     0.340670000000     0.912940000000     0.0559534  
H766     H      0.279880000000     0.351660000000     0.909010000000     0.0352039  
H767     H      0.260870000000     0.397540000000     0.869950000000     0.0356345  
H768     H      0.226710000000     0.386380000000     0.872860000000     0.0558574  
N1       N      0.347230000000     0.079410000000     0.323970000000    -0.179008   
N2       N      0.381680000000     0.096580000000     0.225620000000    -0.178203   
N3       N      0.459710000000     0.105770000000     0.145920000000    -0.178318   
N4       N      0.556870000000     0.125290000000     0.111010000000    -0.179023   
N5       N      0.761810000000     0.074400000000     0.127870000000    -0.178444   
N6       N      0.664980000000     0.110870000000     0.110680000000    -0.178988   
N7       N      0.134260000000     0.090330000000     0.577290000000    -0.178792   
N8       N      0.112710000000     0.124180000000     0.479880000000    -0.178324   
N9       N      0.161720000000     0.112190000000     0.394310000000    -0.179181   
N10      N      0.259380000000     0.077170000000     0.378930000000    -0.178705   
N11      N      0.099540000000     0.097710000000     0.790450000000    -0.178402   
N12      N      0.131390000000     0.086200000000     0.690220000000    -0.178829   
N13      N      0.841710000000     0.072050000000     0.188910000000    -0.178537   
N14      N      0.875530000000     0.091760000000     0.287040000000    -0.177978   
N15      N      0.052030000000     0.121850000000     0.397560000000    -0.17879    
N16      N      0.954230000000     0.102680000000     0.364090000000    -0.178144   
N17      N      0.343750000000     0.950160000000     0.125780000000    -0.178474   
N18      N      0.379160000000     0.046000000000     0.144310000000    -0.178768   
N19      N      0.875110000000     0.152980000000     0.368960000000    -0.178817   
N20      N      0.869380000000     0.251830000000     0.401740000000    -0.178397   
N21      N      0.865460000000     0.329560000000     0.479780000000    -0.178604   
N22      N      0.846450000000     0.364040000000     0.577440000000    -0.178653   
N23      N      0.887830000000     0.351150000000     0.778480000000    -0.178507   
N24      N      0.854250000000     0.371040000000     0.680620000000    -0.17868    
N25      N      0.843410000000     0.496880000000     0.881880000000    -0.178499   
N26      N      0.881910000000     0.402280000000     0.862500000000    -0.178755   
N27      N      0.890520000000     0.593580000000     0.727250000000    -0.178553   
N28      N      0.852620000000     0.572070000000     0.823130000000    -0.178554   
N29      N      0.870810000000     0.551020000000     0.643560000000    -0.178584   
N30      N      0.833220000000     0.455220000000     0.630040000000    -0.178445   
N31      N      0.870920000000     0.748630000000     0.596310000000    -0.178465   
N32      N      0.881440000000     0.652640000000     0.634710000000    -0.178616   
N33      N      0.673100000000     0.617910000000     0.900060000000    -0.178594   
N34      N      0.766380000000     0.576570000000     0.876480000000    -0.178401   
N35      N      0.866700000000     0.119560000000     0.981870000000    -0.178336   
N36      N      0.843660000000     0.079310000000     0.076340000000    -0.178592   
N37      N      0.866240000000     0.198150000000     0.900720000000    -0.178496   
N38      N      0.884570000000     0.292740000000     0.860990000000    -0.178338   
N39      N      0.022980000000     0.103370000000     0.869830000000    -0.17829    
N40      N      0.924830000000     0.122920000000     0.901640000000    -0.178557   
N41      N      0.561480000000     0.625740000000     0.903120000000    -0.178709   
N42      N      0.463500000000     0.607620000000     0.869720000000    -0.178151   
N43      N      0.365880000000     0.831260000000     0.977120000000    -0.178567   
N44      N      0.343920000000     0.864700000000     0.074390000000    -0.178998   
N45      N      0.376830000000     0.760320000000     0.906610000000    -0.178903   
N46      N      0.389830000000     0.662770000000     0.873520000000    -0.178909   
N47      N      0.350110000000     0.452010000000     0.881300000000    -0.17889    
N48      N      0.381930000000     0.550700000000     0.872600000000    -0.178773   
N49      N      0.148670000000     0.956080000000     0.889750000000    -0.178407   
N50      N      0.108320000000     0.050260000000     0.873550000000    -0.178449   
N51      N      0.224820000000     0.889260000000     0.881970000000    -0.17848    
N52      N      0.322400000000     0.853370000000     0.892340000000    -0.178782   
N53      N      0.348250000000     0.583360000000     0.693910000000    -0.178657   
N54      N      0.384960000000     0.601840000000     0.791110000000    -0.178511   
N55      N      0.371860000000     0.630440000000     0.488850000000    -0.178368   
N56      N      0.351390000000     0.590640000000     0.583750000000    -0.178994   
N57      N      0.311810000000     0.614780000000     0.412110000000    -0.179291   
N58      N      0.216750000000     0.575670000000     0.392120000000    -0.17863    
N59      N      0.132750000000     0.594410000000     0.439230000000    -0.178757   
N60      N      0.116970000000     0.633550000000     0.535600000000    -0.178894   
N61      N      0.963720000000     0.607460000000     0.657760000000    -0.178414   
N62      N      0.060800000000     0.629150000000     0.624630000000    -0.179379   
N63      N      0.167790000000     0.614890000000     0.618320000000    -0.178487   
N64      N      0.266010000000     0.581970000000     0.634280000000    -0.178684   
N65      N      0.762050000000     0.384680000000     0.628710000000    -0.178558   
N66      N      0.666600000000     0.344690000000     0.614620000000    -0.178727   
N67      N      0.384320000000     0.354490000000     0.725760000000    -0.177839   
N68      N      0.351760000000     0.372050000000     0.824720000000    -0.178593   
N69      N      0.460780000000     0.345850000000     0.647670000000    -0.178021   
N70      N      0.558850000000     0.328030000000     0.614230000000    -0.178641   
N71      N      0.378590000000     0.407840000000     0.647040000000    -0.179101   
N72      N      0.344720000000     0.506090000000     0.639030000000    -0.178413   
N73      N      0.391980000000     0.855420000000     0.281990000000    -0.178656   
N74      N      0.355810000000     0.875550000000     0.185320000000    -0.178818   
N75      N      0.461880000000     0.843160000000     0.355850000000    -0.17882    
N76      N      0.558460000000     0.825770000000     0.393000000000    -0.178462   
N77      N      0.364520000000     0.704830000000     0.415000000000    -0.178682   
N78      N      0.377860000000     0.799880000000     0.374990000000    -0.178289   
N79      N      0.330630000000     0.997150000000     0.376340000000    -0.178794   
N80      N      0.369350000000     0.901300000000     0.364410000000    -0.178503   
N81      N      0.843120000000     0.941250000000     0.371770000000    -0.178293   
N82      N      0.874390000000     0.040330000000     0.365170000000    -0.178846   
N83      N      0.769440000000     0.863400000000     0.377860000000    -0.17863    
N84      N      0.671790000000     0.830650000000     0.397860000000    -0.178346   
N85      N      0.855670000000     0.855700000000     0.427670000000    -0.179112   
N86      N      0.874620000000     0.819440000000     0.524370000000    -0.178542   
N87      N      0.617500000000     0.201250000000     0.104760000000    -0.178599   
N88      N      0.607250000000     0.299210000000     0.137500000000    -0.178753   
N89      N      0.651930000000     0.496870000000     0.130830000000    -0.178667   
N90      N      0.615950000000     0.400570000000     0.143480000000    -0.178758   
N91      N      0.622150000000     0.624730000000     0.983370000000    -0.178402   
N92      N      0.638730000000     0.589610000000     0.081240000000    -0.178755   
N93      N      0.719240000000     0.374990000000     0.377070000000    -0.178397   
N94      N      0.814280000000     0.335290000000     0.395780000000    -0.17887    
N95      N      0.644300000000     0.364370000000     0.436080000000    -0.178504   
N96      N      0.623560000000     0.324930000000     0.531350000000    -0.17863    
N97      N      0.633050000000     0.377740000000     0.325310000000    -0.178579   
N98      N      0.595280000000     0.357910000000     0.228980000000    -0.178757   
N99      N      0.417430000000     0.623400000000     0.396480000000    -0.178563   
N100     N      0.513770000000     0.602480000000     0.360530000000    -0.178417   
N101     N      0.628790000000     0.577620000000     0.184770000000    -0.178754   
N102     N      0.592520000000     0.594470000000     0.282390000000    -0.178541   
N103     N      0.598070000000     0.544860000000     0.364410000000    -0.17851    
N104     N      0.639270000000     0.451630000000     0.385170000000    -0.178474   
N105     N      0.592780000000     0.654960000000     0.363920000000    -0.178616   
N106     N      0.613360000000     0.750990000000     0.398630000000    -0.178432   
N107     N      0.890020000000     0.847070000000     0.221130000000    -0.178664   
N108     N      0.853440000000     0.862740000000     0.318720000000    -0.178706   
N109     N      0.877780000000     0.899230000000     0.140040000000    -0.178718   
N110     N      0.841640000000     0.996410000000     0.130440000000    -0.178547   
N111     N      0.522250000000     0.851710000000     0.847500000000    -0.178821   
N112     N      0.425000000000     0.840930000000     0.885350000000    -0.178244   
N113     N      0.603630000000     0.797840000000     0.865930000000    -0.178827   
N114     N      0.617710000000     0.701340000000     0.902630000000    -0.178498   
N115     N      0.724100000000     0.876490000000     0.623980000000    -0.17855    
N116     N      0.820980000000     0.840700000000     0.606300000000    -0.179073   
N117     N      0.642830000000     0.870970000000     0.570730000000    -0.178856   
N118     N      0.617750000000     0.831630000000     0.476290000000    -0.178693   
N119     N      0.641000000000     0.873530000000     0.681710000000    -0.178631   
N120     N      0.602960000000     0.849470000000     0.776900000000    -0.178346   
N121     N      0.021080000000     0.849720000000     0.654630000000    -0.17817    
N122     N      0.924690000000     0.829930000000     0.617880000000    -0.17873    
N123     N      0.097990000000     0.857220000000     0.734040000000    -0.178458   
N124     N      0.133240000000     0.876440000000     0.831360000000    -0.179344   
N125     N      0.102050000000     0.800410000000     0.649660000000    -0.178479   
N126     N      0.121210000000     0.705250000000     0.612550000000    -0.178054   
N127     N      0.103000000000     0.911120000000     0.656090000000    -0.17861    
N128     N      0.137130000000     0.007760000000     0.637390000000    -0.178253   
N129     N      0.340690000000     0.081040000000     0.432620000000    -0.178757   
N130     N      0.365020000000     0.118380000000     0.528010000000    -0.178556   
N131     N      0.380810000000     0.296740000000     0.641240000000    -0.178746   
N132     N      0.370060000000     0.198980000000     0.606240000000    -0.178668   
N133     N      0.213410000000     0.085750000000     0.629160000000    -0.17822    
N134     N      0.310450000000     0.119800000000     0.608100000000    -0.178669   
N135     N      0.518890000000     0.100950000000     0.647550000000    -0.178502   
N136     N      0.422900000000     0.120490000000     0.609520000000    -0.178358   
N137     N      0.608540000000     0.049640000000     0.646750000000    -0.178806   
N138     N      0.644660000000     0.953310000000     0.630270000000    -0.178542   
N139     N      0.597220000000     0.157060000000     0.645770000000    -0.17891    
N140     N      0.617250000000     0.253220000000     0.611560000000    -0.178623   
N141     N      0.812260000000     0.113370000000     0.906020000000    -0.178539   
N142     N      0.717720000000     0.072670000000     0.886970000000    -0.17881    
N143     N      0.612160000000     0.904310000000     0.853660000000    -0.179372   
N144     N      0.648700000000     0.999140000000     0.874420000000    -0.179032   
N145     N      0.589000000000     0.097240000000     0.729720000000    -0.178585   
N146     N      0.626490000000     0.081060000000     0.826980000000    -0.178673   
N147     N      0.633280000000     0.090680000000     0.930100000000    -0.178447   
N148     N      0.616670000000     0.129060000000     0.026630000000    -0.178735   
N149     N      0.862400000000     0.620150000000     0.030330000000    -0.178446   
N150     N      0.841940000000     0.581900000000     0.934470000000    -0.178666   
N151     N      0.874950000000     0.694190000000     0.098400000000    -0.178755   
N152     N      0.891450000000     0.790390000000     0.133750000000    -0.179179   
N153     N      0.721870000000     0.566900000000     0.132180000000    -0.178798   
N154     N      0.818540000000     0.603070000000     0.116200000000    -0.17867    
N155     N      0.379100000000     0.156600000000     0.143560000000    -0.178693   
N156     N      0.364660000000     0.252370000000     0.106130000000    -0.178401   
N157     N      0.376660000000     0.327900000000     0.030210000000    -0.178257   
N158     N      0.358960000000     0.367870000000     0.934690000000    -0.178392   
N159     N      0.523870000000     0.345050000000     0.157290000000    -0.178552   
N160     N      0.427910000000     0.326040000000     0.119520000000    -0.179356   
N161     N      0.022150000000     0.350080000000     0.362890000000    -0.178344   
N162     N      0.925140000000     0.329680000000     0.397940000000    -0.178432   
N163     N      0.107280000000     0.408550000000     0.362030000000    -0.178639   
N164     N      0.145280000000     0.503660000000     0.379870000000    -0.178644   
N165     N      0.107690000000     0.198680000000     0.401710000000    -0.178168   
N166     N      0.100930000000     0.297110000000     0.368080000000    -0.178571   
N167     N      0.123030000000     0.586400000000     0.337210000000    -0.178283   
N168     N      0.083770000000     0.600370000000     0.240770000000    -0.178615   
N169     N      0.919190000000     0.612390000000     0.124830000000    -0.17864    
N170     N      0.014030000000     0.599460000000     0.167380000000    -0.178507   
N171     N      0.125230000000     0.824020000000     0.031840000000    -0.178653   
N172     N      0.144090000000     0.862460000000     0.935660000000    -0.178836   
N173     N      0.117160000000     0.746190000000     0.110890000000    -0.178424   
N174     N      0.097730000000     0.650710000000     0.147450000000    -0.178706   
N175     N      0.174440000000     0.829510000000     0.114510000000    -0.178706   
N176     N      0.268460000000     0.870570000000     0.134790000000    -0.178408   
N177     N      0.063280000000     0.824070000000     0.112130000000    -0.17862    
N178     N      0.965680000000     0.846290000000     0.143750000000    -0.177909   
N179     N      0.320370000000     0.342710000000     0.109220000000    -0.17889    
N180     N      0.224540000000     0.379030000000     0.130370000000    -0.178741   
N181     N      0.107410000000     0.549530000000     0.157110000000    -0.178933   
N182     N      0.144800000000     0.454430000000     0.137480000000    -0.178637   
N183     N      0.103000000000     0.355590000000     0.286180000000    -0.178008   
N184     N      0.140950000000     0.376380000000     0.189910000000    -0.178381   
N185     N      0.100880000000     0.160220000000     0.871220000000    -0.178987   
N186     N      0.115750000000     0.257860000000     0.904460000000    -0.178197   
N187     N      0.123340000000     0.335590000000     0.981070000000    -0.177986   
N188     N      0.145180000000     0.371770000000     0.077730000000    -0.178533   
N189     N      0.062390000000     0.335110000000     0.896660000000    -0.178856   
N190     N      0.964250000000     0.344480000000     0.859450000000    -0.178274   
N191     N      0.174390000000     0.340690000000     0.901690000000    -0.17889    
N192     N      0.272830000000     0.375290000000     0.889070000000    -0.178752   
O1       O      0.124810000000     0.312020000000     0.956280000000    -0.24369    
O2       O      0.096030000000     0.329520000000     0.893210000000    -0.247253   
O3       O      0.112390000000     0.282940000000     0.927470000000    -0.243734   
O4       O      0.153530000000     0.315950000000     0.911810000000    -0.25084    
O5       O      0.140790000000     0.344510000000     0.907490000000    -0.246705   
O6       O      0.121890000000     0.290410000000     0.897810000000    -0.247722   
O7       O      0.116330000000     0.341330000000     0.947990000000    -0.248126   
O8       O      0.083240000000     0.326520000000     0.922370000000    -0.250996   
O9       O      0.168920000000     0.430430000000     0.138820000000    -0.244302   
O10      O      0.139770000000     0.377200000000     0.155460000000    -0.24395    
O11      O      0.198800000000     0.400900000000     0.125930000000    -0.244992   
O12      O      0.158990000000     0.395620000000     0.097670000000    -0.251414   
O13      O      0.147780000000     0.369740000000     0.112060000000    -0.24486    
O14      O      0.192100000000     0.373050000000     0.139320000000    -0.250567   
O15      O      0.139170000000     0.421560000000     0.131700000000    -0.251105   
O16      O      0.163790000000     0.392170000000     0.170070000000    -0.250811   
O17      O      0.127890000000     0.800630000000     0.056640000000    -0.24434    
O18      O      0.140480000000     0.830650000000     0.110250000000    -0.244607   
O19      O      0.116850000000     0.770190000000     0.086570000000    -0.24398    
O20      O      0.084200000000     0.807900000000     0.090540000000    -0.251894   
O21      O      0.097390000000     0.823320000000     0.115160000000    -0.243887   
O22      O      0.121400000000     0.779210000000     0.116950000000    -0.251358   
O23      O      0.117290000000     0.829240000000     0.064820000000    -0.251619   
O24      O      0.156080000000     0.805630000000     0.098710000000    -0.251799   
O25      O      0.042450000000     0.613710000000     0.179890000000    -0.249817   
O26      O      0.102890000000     0.575260000000     0.178940000000    -0.250882   
O27      O      0.072470000000     0.586280000000     0.211620000000    -0.24956    
O28      O      0.076260000000     0.624610000000     0.150830000000    -0.250475   
O29      O      0.100140000000     0.626910000000     0.171810000000    -0.246241   
O30      O      0.085170000000     0.615140000000     0.209870000000    -0.245246   
O31      O      0.044780000000     0.584710000000     0.167540000000    -0.245509   
O32      O      0.083490000000     0.573490000000     0.153690000000    -0.246641   
O33      O      0.047310000000     0.346850000000     0.339710000000    -0.245471   
O34      O      0.105460000000     0.374830000000     0.365720000000    -0.244953   
O35      O      0.078030000000     0.356290000000     0.309810000000    -0.24136    
O36      O      0.092120000000     0.318480000000     0.343060000000    -0.25063    
O37      O      0.094970000000     0.330230000000     0.372630000000    -0.245526   
O38      O      0.107920000000     0.351060000000     0.319860000000    -0.248413   
O39      O      0.054900000000     0.357650000000     0.368800000000    -0.251543   
O40      O      0.085610000000     0.388640000000     0.344940000000    -0.252885   
O41      O      0.366270000000     0.307570000000     0.055690000000    -0.243379   
O42      O      0.395930000000     0.334190000000     0.110300000000    -0.248179   
O43      O      0.374460000000     0.276910000000     0.084530000000    -0.24363    
O44      O      0.348730000000     0.325070000000     0.116380000000    -0.24402    
O45      O      0.343130000000     0.332550000000     0.085820000000    -0.251899   
O46      O      0.360080000000     0.285390000000     0.111780000000    -0.248505   
O47      O      0.385390000000     0.331740000000     0.063230000000    -0.24937    
O48      O      0.406910000000     0.305800000000     0.101980000000    -0.253395   
O49      O      0.880450000000     0.620070000000     0.059550000000    -0.243512   
O50      O      0.848070000000     0.603240000000     0.098840000000    -0.252161   
O51      O      0.856420000000     0.665760000000     0.098710000000    -0.243886   
O52      O      0.900130000000     0.614080000000     0.096340000000    -0.243343   
O53      O      0.888870000000     0.627940000000     0.122790000000    -0.251268   
O54      O      0.886940000000     0.663630000000     0.089920000000    -0.252511   
O55      O      0.851730000000     0.633630000000     0.059970000000    -0.252134   
O56      O      0.838760000000     0.630110000000     0.112720000000    -0.244116   
O57      O      0.661500000000     0.028660000000     0.863600000000    -0.252385   
O58      O      0.626760000000     0.065230000000     0.857430000000    -0.25191    
O59      O      0.687420000000     0.061600000000     0.898220000000    -0.25248    
O60      O      0.648930000000     0.090620000000     0.899460000000    -0.250758   
O61      O      0.637200000000     0.063330000000     0.910320000000    -0.242929   
O62      O      0.689600000000     0.070310000000     0.867550000000    -0.243311   
O63      O      0.645130000000     0.028530000000     0.891020000000    -0.243249   
O64      O      0.653430000000     0.079700000000     0.848060000000    -0.244868   
O65      O      0.542410000000     0.101650000000     0.672660000000    -0.246244   
O66      O      0.582380000000     0.071340000000     0.646880000000    -0.247083   
O67      O      0.574810000000     0.085790000000     0.700550000000    -0.247366   
O68      O      0.578420000000     0.136720000000     0.665520000000    -0.250371   
O69      O      0.599720000000     0.123180000000     0.646110000000    -0.248415   
O70      O      0.591450000000     0.112660000000     0.699290000000    -0.248648   
O71      O      0.552530000000     0.098680000000     0.642430000000    -0.246917   
O72      O      0.607830000000     0.078630000000     0.664610000000    -0.249228   
O73      O      0.366950000000     0.143620000000     0.550970000000    -0.244047   
O74      O      0.344600000000     0.117180000000     0.606880000000    -0.244031   
O75      O      0.363250000000     0.175250000000     0.582570000000    -0.24247    
O76      O      0.402970000000     0.136480000000     0.586850000000    -0.251661   
O77      O      0.388680000000     0.121240000000     0.611030000000    -0.242057   
O78      O      0.373470000000     0.165770000000     0.611360000000    -0.252657   
O79      O      0.366660000000     0.114020000000     0.562000000000    -0.253075   
O80      O      0.330950000000     0.141300000000     0.591530000000    -0.253359   
O81      O      0.045680000000     0.848500000000     0.678570000000    -0.24408    
O82      O      0.097870000000     0.834010000000     0.647380000000    -0.244863   
O83      O      0.074870000000     0.859800000000     0.708770000000    -0.243728   
O84      O      0.079500000000     0.890420000000     0.669370000000    -0.252014   
O85      O      0.106010000000     0.877350000000     0.657570000000    -0.2453     
O86      O      0.104560000000     0.851360000000     0.700850000000    -0.249731   
O87      O      0.054050000000     0.856510000000     0.648740000000    -0.250488   
O88      O      0.087600000000     0.819540000000     0.673920000000    -0.251245   
O89      O      0.690960000000     0.870400000000     0.629680000000    -0.25105    
O90      O      0.646040000000     0.869590000000     0.604950000000    -0.244798   
O91      O      0.669110000000     0.929610000000     0.628690000000    -0.243676   
O92      O      0.663880000000     0.890090000000     0.662500000000    -0.251362   
O93      O      0.639760000000     0.875770000000     0.647400000000    -0.243173   
O94      O      0.638770000000     0.920160000000     0.627160000000    -0.252148   
O95      O      0.699260000000     0.899640000000     0.621130000000    -0.244038   
O96      O      0.658800000000     0.894270000000     0.589760000000    -0.25249    
O97      O      0.550260000000     0.838070000000     0.833290000000    -0.248879   
O98      O      0.603360000000     0.872210000000     0.860650000000    -0.247889   
O99      O      0.578520000000     0.851740000000     0.800970000000    -0.244909   
O100     O      0.602810000000     0.819370000000     0.839510000000    -0.246759   
O101     O      0.587640000000     0.827820000000     0.866280000000    -0.249001   
O102     O      0.608310000000     0.845400000000     0.810520000000    -0.244409   
O103     O      0.553650000000     0.864780000000     0.849930000000    -0.251361   
O104     O      0.594560000000     0.884360000000     0.832480000000    -0.252501   
O105     O      0.940570000000     0.845120000000     0.167170000000    -0.242478   
O106     O      0.876160000000     0.868170000000     0.153700000000    -0.249028   
O107     O      0.909930000000     0.856010000000     0.194600000000    -0.246478   
O108     O      0.908720000000     0.810830000000     0.154750000000    -0.253026   
O109     O      0.885450000000     0.823660000000     0.137220000000    -0.247722   
O110     O      0.885830000000     0.836180000000     0.188910000000    -0.250482   
O111     O      0.932500000000     0.849490000000     0.136410000000    -0.245898   
O112     O      0.904290000000     0.878110000000     0.142740000000    -0.248101   
O113     O      0.538580000000     0.603630000000     0.336820000000    -0.243886   
O114     O      0.591030000000     0.621230000000     0.366930000000    -0.24447    
O115     O      0.598410000000     0.600530000000     0.315670000000    -0.251226   
O116     O      0.574040000000     0.563280000000     0.348700000000    -0.251356   
O117     O      0.599220000000     0.578540000000     0.360730000000    -0.24441    
O118     O      0.568700000000     0.592910000000     0.307090000000    -0.244054   
O119     O      0.546820000000     0.596590000000     0.366930000000    -0.250936   
O120     O      0.577780000000     0.634520000000     0.341120000000    -0.252094   
O121     O      0.694950000000     0.397660000000     0.384670000000    -0.242682   
O122     O      0.651720000000     0.397370000000     0.345970000000    -0.252636   
O123     O      0.663510000000     0.428390000000     0.379350000000    -0.243607   
O124     O      0.664690000000     0.382730000000     0.415850000000    -0.252211   
O125     O      0.636980000000     0.372960000000     0.403540000000    -0.243451   
O126     O      0.635240000000     0.418410000000     0.390090000000    -0.252077   
O127     O      0.685890000000     0.370460000000     0.371200000000    -0.251695   
O128     O      0.639270000000     0.371110000000     0.358550000000    -0.243764   
O129     O      0.663420000000     0.525270000000     0.145540000000    -0.2496     
O130     O      0.659850000000     0.585720000000     0.107960000000    -0.250879   
O131     O      0.692830000000     0.555290000000     0.118420000000    -0.250276   
O132     O      0.633000000000     0.556960000000     0.157890000000    -0.250959   
O133     O      0.652420000000     0.581760000000     0.160240000000    -0.246682   
O134     O      0.691250000000     0.568680000000     0.147390000000    -0.24515    
O135     O      0.649590000000     0.527660000000     0.116760000000    -0.244628   
O136     O      0.635580000000     0.565570000000     0.105260000000    -0.246392   
O137     O      0.584410000000     0.368750000000     0.198300000000    -0.252643   
O138     O      0.615690000000     0.370880000000     0.160020000000    -0.251402   
O139     O      0.553520000000     0.334420000000     0.170630000000    -0.251166   
O140     O      0.588750000000     0.327660000000     0.138200000000    -0.252135   
O141     O      0.607590000000     0.321600000000     0.163250000000    -0.244863   
O142     O      0.553360000000     0.362000000000     0.155140000000    -0.242591   
O143     O      0.594890000000     0.339090000000     0.200390000000    -0.244614   
O144     O      0.588520000000     0.380700000000     0.146690000000    -0.243633   
O145     O      0.794110000000     0.886960000000     0.377900000000    -0.246511   
O146     O      0.843130000000     0.852990000000     0.395790000000    -0.247934   
O147     O      0.825890000000     0.915010000000     0.385150000000    -0.240888   
O148     O      0.827990000000     0.872620000000     0.339330000000    -0.249484   
O149     O      0.856720000000     0.868170000000     0.352560000000    -0.245053   
O150     O      0.846630000000     0.909210000000     0.361540000000    -0.250577   
O151     O      0.802720000000     0.856870000000     0.374210000000    -0.249107   
O152     O      0.845970000000     0.881830000000     0.408150000000    -0.252124   
O153     O      0.405170000000     0.865770000000     0.311930000000    -0.252086   
O154     O      0.370330000000     0.871160000000     0.348730000000    -0.252036   
O155     O      0.431400000000     0.831720000000     0.345550000000    -0.252639   
O156     O      0.382300000000     0.818910000000     0.346960000000    -0.242703   
O157     O      0.392280000000     0.830640000000     0.374950000000    -0.250731   
O158     O      0.433610000000     0.862100000000     0.353620000000    -0.243774   
O159     O      0.388660000000     0.838860000000     0.311770000000    -0.243071   
O160     O      0.396640000000     0.880920000000     0.363770000000    -0.244621   
O161     O      0.611380000000     0.775210000000     0.422640000000    -0.242069   
O162     O      0.637520000000     0.832500000000     0.397210000000    -0.243589   
O163     O      0.619090000000     0.806720000000     0.452990000000    -0.244446   
O164     O      0.579110000000     0.808310000000     0.413740000000    -0.25264    
O165     O      0.592400000000     0.830340000000     0.395060000000    -0.243186   
O166     O      0.611560000000     0.835640000000     0.442760000000    -0.25311    
O167     O      0.618490000000     0.783890000000     0.392620000000    -0.251516   
O168     O      0.650990000000     0.809830000000     0.414930000000    -0.252223   
O169     O      0.436030000000     0.346420000000     0.671580000000    -0.24259    
O170     O      0.374070000000     0.374630000000     0.652420000000    -0.248291   
O171     O      0.407450000000     0.356750000000     0.700370000000    -0.242535   
O172     O      0.389200000000     0.317510000000     0.666920000000    -0.250003   
O173     O      0.388830000000     0.329490000000     0.637310000000    -0.24619    
O174     O      0.377520000000     0.348910000000     0.692610000000    -0.246502   
O175     O      0.427740000000     0.351060000000     0.640970000000    -0.247949   
O176     O      0.403320000000     0.386430000000     0.656170000000    -0.252905   
O177     O      0.606130000000     0.326460000000     0.560860000000    -0.247559   
O178     O      0.635780000000     0.343390000000     0.599630000000    -0.249036   
O179     O      0.617240000000     0.277070000000     0.587040000000    -0.246275   
O180     O      0.580310000000     0.312440000000     0.592760000000    -0.249165   
O181     O      0.593020000000     0.330600000000     0.615620000000    -0.247403   
O182     O      0.618200000000     0.286450000000     0.617610000000    -0.248621   
O183     O      0.633280000000     0.309960000000     0.560650000000    -0.248313   
O184     O      0.647910000000     0.316610000000     0.611260000000    -0.248325   
O185     O      0.129670000000     0.648000000000     0.563990000000    -0.247948   
O186     O      0.081980000000     0.650570000000     0.608880000000    -0.253202   
O187     O      0.113920000000     0.680290000000     0.590410000000    -0.245081   
O188     O      0.140620000000     0.617780000000     0.597620000000    -0.249262   
O189     O      0.143810000000     0.638830000000     0.621190000000    -0.24357    
O190     O      0.126070000000     0.672410000000     0.618940000000    -0.243566   
O191     O      0.102320000000     0.632020000000     0.566610000000    -0.25041    
O192     O      0.093000000000     0.621780000000     0.615420000000    -0.250108   
O193     O      0.186750000000     0.577890000000     0.375820000000    -0.24329    
O194     O      0.148630000000     0.594160000000     0.408760000000    -0.252644   
O195     O      0.147870000000     0.531310000000     0.399560000000    -0.243362   
O196     O      0.151120000000     0.583660000000     0.356570000000    -0.242266   
O197     O      0.124290000000     0.570620000000     0.367670000000    -0.250482   
O198     O      0.154120000000     0.534290000000     0.368330000000    -0.252383   
O199     O      0.187770000000     0.561110000000     0.402860000000    -0.252048   
O200     O      0.135780000000     0.567200000000     0.419030000000    -0.245277   
O201     O      0.361740000000     0.650580000000     0.463110000000    -0.245085   
O202     O      0.392270000000     0.645720000000     0.401690000000    -0.250018   
O203     O      0.377790000000     0.677670000000     0.430670000000    -0.247007   
O204     O      0.332660000000     0.630960000000     0.433690000000    -0.252889   
O205     O      0.343130000000     0.626040000000     0.403930000000    -0.250004   
O206     O      0.351610000000     0.673570000000     0.412850000000    -0.250106   
O207     O      0.379270000000     0.625280000000     0.455740000000    -0.244649   
O208     O      0.392020000000     0.619340000000     0.419150000000    -0.24331    
O209     O      0.291050000000     0.558830000000     0.634670000000    -0.245266   
O210     O      0.342510000000     0.592600000000     0.616930000000    -0.245812   
O211     O      0.323190000000     0.530600000000     0.629060000000    -0.241491   
O212     O      0.324560000000     0.570090000000     0.673110000000    -0.250765   
O213     O      0.351250000000     0.581270000000     0.659690000000    -0.243514   
O214     O      0.348580000000     0.538820000000     0.646530000000    -0.25126    
O215     O      0.299260000000     0.589170000000     0.637000000000    -0.251255   
O216     O      0.338380000000     0.565080000000     0.602020000000    -0.253056   
O217     O      0.196060000000     0.899380000000     0.897520000000    -0.247217   
O218     O      0.153870000000     0.870960000000     0.858290000000    -0.248633   
O219     O      0.167630000000     0.930520000000     0.877660000000    -0.248277   
O220     O      0.138220000000     0.884820000000     0.910510000000    -0.246511   
O221     O      0.166260000000     0.870050000000     0.910670000000    -0.250044   
O222     O      0.144990000000     0.923750000000     0.899130000000    -0.244891   
O223     O      0.193660000000     0.887460000000     0.867910000000    -0.246901   
O224     O      0.139350000000     0.898840000000     0.856300000000    -0.252916   
O225     O      0.328460000000     0.427110000000     0.889930000000    -0.24514    
O226     O      0.356440000000     0.375170000000     0.858700000000    -0.244423   
O227     O      0.297080000000     0.396050000000     0.876850000000    -0.24405    
O228     O      0.346210000000     0.393450000000     0.916240000000    -0.25067    
O229     O      0.349540000000     0.365540000000     0.901660000000    -0.242538   
O230     O      0.306290000000     0.371400000000     0.894480000000    -0.252545   
O231     O      0.354980000000     0.419370000000     0.874000000000    -0.252586   
O232     O      0.329110000000     0.385780000000     0.846310000000    -0.251262   
O233     O      0.358800000000     0.789050000000     0.908010000000    -0.243783   
O234     O      0.393440000000     0.827740000000     0.884930000000    -0.250168   
O235     O      0.382860000000     0.834770000000     0.947490000000    -0.242826   
O236     O      0.342800000000     0.826250000000     0.893440000000    -0.245446   
O237     O      0.351760000000     0.851750000000     0.909900000000    -0.252793   
O238     O      0.356270000000     0.817470000000     0.947260000000    -0.251909   
O239     O      0.389910000000     0.790550000000     0.914590000000    -0.252738   
O240     O      0.404740000000     0.838350000000     0.912890000000    -0.242751   
O241     O      0.439290000000     0.607190000000     0.845320000000    -0.24091    
O242     O      0.377000000000     0.583340000000     0.864540000000    -0.246007   
O243     O      0.408660000000     0.598700000000     0.815810000000    -0.245389   
O244     O      0.405720000000     0.641220000000     0.852580000000    -0.253824   
O245     O      0.384980000000     0.629140000000     0.873600000000    -0.245595   
O246     O      0.379950000000     0.609610000000     0.824120000000    -0.251741   
O247     O      0.430050000000     0.605000000000     0.876030000000    -0.248342   
O248     O      0.406650000000     0.571950000000     0.863130000000    -0.250998   
O249     O      0.869340000000     0.175300000000     0.925980000000    -0.244203   
O250     O      0.845870000000     0.117950000000     0.900940000000    -0.242924   
O251     O      0.863470000000     0.143980000000     0.958170000000    -0.24225    
O252     O      0.903420000000     0.140710000000     0.921300000000    -0.252531   
O253     O      0.890670000000     0.119970000000     0.900800000000    -0.24329    
O254     O      0.872590000000     0.115310000000     0.948340000000    -0.252329   
O255     O      0.862280000000     0.164820000000     0.896600000000    -0.252819   
O256     O      0.831850000000     0.134020000000     0.924670000000    -0.252745   
O257     O      0.623380000000     0.648220000000     0.958560000000    -0.243645   
O258     O      0.639150000000     0.617110000000     0.904500000000    -0.24442    
O259     O      0.620310000000     0.678020000000     0.927500000000    -0.242525   
O260     O      0.583030000000     0.641510000000     0.924400000000    -0.252583   
O261     O      0.595610000000     0.624570000000     0.900490000000    -0.24335    
O262     O      0.617640000000     0.667960000000     0.897230000000    -0.251946   
O263     O      0.617710000000     0.618390000000     0.949920000000    -0.251866   
O264     O      0.655080000000     0.641870000000     0.916150000000    -0.252843   
O265     O      0.885770000000     0.776610000000     0.583920000000    -0.248267   
O266     O      0.846510000000     0.818700000000     0.611490000000    -0.247404   
O267     O      0.862270000000     0.804180000000     0.552460000000    -0.248981   
O268     O      0.899700000000     0.834080000000     0.594750000000    -0.246377   
O269     O      0.898890000000     0.808280000000     0.612990000000    -0.250506   
O270     O      0.887260000000     0.823420000000     0.556050000000    -0.244583   
O271     O      0.857030000000     0.779530000000     0.597490000000    -0.245845   
O272     O      0.846430000000     0.834990000000     0.584170000000    -0.252124   
O273     O      0.889820000000     0.612040000000     0.698430000000    -0.242696   
O274     O      0.871480000000     0.580950000000     0.659650000000    -0.25175    
O275     O      0.933700000000     0.617210000000     0.670920000000    -0.252379   
O276     O      0.883130000000     0.632640000000     0.662370000000    -0.244284   
O277     O      0.896460000000     0.622220000000     0.635330000000    -0.252274   
O278     O      0.934290000000     0.590740000000     0.653600000000    -0.243313   
O279     O      0.903560000000     0.583640000000     0.697100000000    -0.251942   
O280     O      0.898340000000     0.570920000000     0.645820000000    -0.243433   
O281     O      0.789850000000     0.552380000000     0.881440000000    -0.243123   
O282     O      0.845740000000     0.578450000000     0.856290000000    -0.243767   
O283     O      0.820480000000     0.521140000000     0.875100000000    -0.243037   
O284     O      0.821300000000     0.564360000000     0.913780000000    -0.252741   
O285     O      0.848550000000     0.575170000000     0.901320000000    -0.243392   
O286     O      0.848420000000     0.529820000000     0.887770000000    -0.251629   
O287     O      0.799840000000     0.580410000000     0.870720000000    -0.251953   
O288     O      0.834110000000     0.551950000000     0.843450000000    -0.252458   
O289     O      0.911390000000     0.349810000000     0.803480000000    -0.244813   
O290     O      0.879120000000     0.369010000000     0.856580000000    -0.244828   
O291     O      0.940560000000     0.353710000000     0.836350000000    -0.241822   
O292     O      0.900150000000     0.312480000000     0.837870000000    -0.250683   
O293     O      0.886530000000     0.326500000000     0.863160000000    -0.242461   
O294     O      0.930740000000     0.339030000000     0.862920000000    -0.251616   
O295     O      0.880720000000     0.348480000000     0.811960000000    -0.251916   
O296     O      0.906260000000     0.383190000000     0.848230000000    -0.252897   
O297     O      0.861620000000     0.276560000000     0.424000000000    -0.241578   
O298     O      0.891130000000     0.327370000000     0.394630000000    -0.242982   
O299     O      0.866910000000     0.305780000000     0.455270000000    -0.24442    
O300     O      0.833050000000     0.310740000000     0.409910000000    -0.253246   
O301     O      0.847890000000     0.337460000000     0.402020000000    -0.245114   
O302     O      0.867750000000     0.335960000000     0.446140000000    -0.251734   
O303     O      0.876100000000     0.284580000000     0.396640000000    -0.251284   
O304     O      0.904360000000     0.315980000000     0.421430000000    -0.251177   
O305     O      0.791030000000     0.396110000000     0.614540000000    -0.249816   
O306     O      0.830050000000     0.369520000000     0.656380000000    -0.246002   
O307     O      0.822000000000     0.426370000000     0.644130000000    -0.249783   
O308     O      0.825290000000     0.366520000000     0.604340000000    -0.250563   
O309     O      0.848210000000     0.388130000000     0.601530000000    -0.24603    
O310     O      0.833850000000     0.425080000000     0.614430000000    -0.244833   
O311     O      0.792600000000     0.384090000000     0.644100000000    -0.245108   
O312     O      0.851670000000     0.392460000000     0.654100000000    -0.250339   
O313     O      0.321410000000     0.925440000000     0.132750000000    -0.242633   
O314     O      0.351150000000     0.872860000000     0.107060000000    -0.244384   
O315     O      0.291900000000     0.894400000000     0.128250000000    -0.242827   
O316     O      0.338190000000     0.896020000000     0.164590000000    -0.253216   
O317     O      0.347100000000     0.868040000000     0.152860000000    -0.244525   
O318     O      0.302060000000     0.866640000000     0.139570000000    -0.251308   
O319     O      0.349760000000     0.917270000000     0.120640000000    -0.251366   
O320     O      0.322410000000     0.880480000000     0.095620000000    -0.253226   
O321     O      0.899890000000     0.093500000000     0.311260000000    -0.24201    
O322     O      0.881600000000     0.120000000000     0.373790000000    -0.246561   
O323     O      0.929310000000     0.102960000000     0.340370000000    -0.242746   
O324     O      0.897690000000     0.062280000000     0.353900000000    -0.252625   
O325     O      0.869170000000     0.073770000000     0.362100000000    -0.245831   
O326     O      0.921330000000     0.096660000000     0.370760000000    -0.248817   
O327     O      0.869430000000     0.096030000000     0.320540000000    -0.248521   
O328     O      0.883530000000     0.131400000000     0.344010000000    -0.252047   
O329     O      0.047190000000     0.101150000000     0.845550000000    -0.243703   
O330     O      0.098930000000     0.126630000000     0.875450000000    -0.246134   
O331     O      0.077260000000     0.106230000000     0.815180000000    -0.241736   
O332     O      0.110170000000     0.083350000000     0.866330000000    -0.242568   
O333     O      0.082350000000     0.068680000000     0.861350000000    -0.250884   
O334     O      0.105490000000     0.094570000000     0.824100000000    -0.251078   
O335     O      0.056540000000     0.103810000000     0.876080000000    -0.250745   
O336     O      0.088170000000     0.138760000000     0.848000000000    -0.253706   
O337     O      0.117500000000     0.173690000000     0.422900000000    -0.241337   
O338     O      0.086200000000     0.121840000000     0.394770000000    -0.246443   
O339     O      0.116950000000     0.145830000000     0.453650000000    -0.244478   
O340     O      0.131580000000     0.110410000000     0.410490000000    -0.249377   
O341     O      0.140400000000     0.138260000000     0.398660000000    -0.252784   
O342     O      0.104190000000     0.117640000000     0.447340000000    -0.248438   
O343     O      0.099770000000     0.166130000000     0.397360000000    -0.249968   
O344     O      0.073220000000     0.136400000000     0.420060000000    -0.250194   
O345     O      0.160070000000     0.032840000000     0.640240000000    -0.243922   
O346     O      0.136730000000     0.092720000000     0.611620000000    -0.246604   
O347     O      0.189110000000     0.061820000000     0.629220000000    -0.24259    
O348     O      0.156420000000     0.078940000000     0.668120000000    -0.250657   
O349     O      0.126560000000     0.078080000000     0.657100000000    -0.246895   
O350     O      0.180180000000     0.091780000000     0.633960000000    -0.248338   
O351     O      0.130740000000     0.040150000000     0.630140000000    -0.249285   
O352     O      0.148650000000     0.067030000000     0.597450000000    -0.25235    
O353     O      0.785660000000     0.050090000000     0.129690000000    -0.24331    
O354     O      0.840230000000     0.080170000000     0.110610000000    -0.24334    
O355     O      0.817040000000     0.019860000000     0.127550000000    -0.242442   
O356     O      0.820240000000     0.056400000000     0.167430000000    -0.252543   
O357     O      0.844050000000     0.073120000000     0.154560000000    -0.24312    
O358     O      0.846810000000     0.029700000000     0.133180000000    -0.252219   
O359     O      0.795400000000     0.080100000000     0.129930000000    -0.252624   
O360     O      0.827550000000     0.055740000000     0.094880000000    -0.252817   
O361     O      0.617210000000     0.176420000000     0.081270000000    -0.245829   
O362     O      0.636350000000     0.112130000000     0.091840000000    -0.250037   
O363     O      0.601730000000     0.127080000000     0.057450000000    -0.248434   
O364     O      0.577870000000     0.143010000000     0.090850000000    -0.250416   
O365     O      0.590940000000     0.121520000000     0.110230000000    -0.248891   
O366     O      0.628520000000     0.144020000000     0.055160000000    -0.246301   
O367     O      0.615250000000     0.168360000000     0.112180000000    -0.247664   
O368     O      0.643220000000     0.136900000000     0.110300000000    -0.248895   
O369     O      0.316730000000     0.025230000000     0.362970000000    -0.247265   
O370     O      0.341630000000     0.079760000000     0.398150000000    -0.24706    
O371     O      0.283290000000     0.053230000000     0.374340000000    -0.246596   
O372     O      0.347990000000     0.062400000000     0.353760000000    -0.249593   
O373     O      0.321440000000     0.078160000000     0.346440000000    -0.25075    
O374     O      0.292990000000     0.082510000000     0.381070000000    -0.249359   
O375     O      0.331990000000     0.027680000000     0.390960000000    -0.248349   
O376     O      0.320890000000     0.061100000000     0.413420000000    -0.248161   
O377     O      0.435970000000     0.103510000000     0.170700000000    -0.242809   
O378     O      0.383100000000     0.123090000000     0.140500000000    -0.244606   
O379     O      0.405820000000     0.100260000000     0.201420000000    -0.24261    
O380     O      0.402350000000     0.066030000000     0.159200000000    -0.25274    
O381     O      0.375730000000     0.079500000000     0.148120000000    -0.244229   
O382     O      0.375450000000     0.098260000000     0.191890000000    -0.251254   
O383     O      0.426170000000     0.102990000000     0.140200000000    -0.251167   
O384     O      0.393180000000     0.136760000000     0.167520000000    -0.252758   


