data_structure

_audit_creation_method RASPA-1.0
_audit_creation_date 2023-5-23
_audit_author_name 'Poobodin Mano'

_cell_length_a    43.2005
_cell_length_b    43.1764
_cell_length_c    44.7343
_cell_angle_alpha 89.9996
_cell_angle_beta  89.9994
_cell_angle_gamma 119.963
_cell_volume      72288.3

_symmetry_cell_setting          triclinic
_symmetry_space_group_name_Hall 'P 1'
_symmetry_space_group_name_H-M  'P 1'
_symmetry_Int_Tables_number     1

_symmetry_equiv_pos_as_xyz 'x,y,z'

loop_
_atom_site_label
_atom_site_type_symbol
_atom_site_fract_x
_atom_site_fract_y
_atom_site_fract_z
_atom_site_charge
C1       C      0.461410000000     0.546050000000     0.203020000000     0.346374   
C2       C      0.427250000000     0.622260000000     0.261490000000     0.346824   
C3       C      0.348600000000     0.532440000000     0.201540000000     0.347505   
C4       C      0.403120000000     0.512470000000     0.293350000000     0.345775   
C5       C      0.158060000000     0.541810000000     0.092810000000     0.346387   
C6       C      0.047170000000     0.507050000000     0.534700000000     0.346608   
C7       C      0.069630000000     0.562150000000     0.126300000000     0.34615    
C8       C      0.145000000000     0.621590000000     0.036720000000     0.347867   
C9       C      0.442070000000     0.822610000000     0.372990000000     0.349333   
C10      C      0.462780000000     0.892950000000     0.465820000000     0.345839   
C11      C      0.425050000000     0.920800000000     0.378350000000     0.344848   
C12      C      0.349770000000     0.811620000000     0.432990000000     0.348165   
C13      C      0.895150000000     0.477170000000     0.284380000000     0.345558   
C14      C      0.795270000000     0.448370000000     0.343380000000     0.349441   
C15      C      0.803370000000     0.354780000000     0.291650000000     0.347215   
C16      C      0.878360000000     0.412130000000     0.372570000000     0.346163   
C17      C      0.484340000000     0.420970000000     0.452040000000     0.345423   
C18      C      0.517590000000     0.352270000000     0.510940000000     0.349606   
C19      C      0.606320000000     0.453320000000     0.455600000000     0.347399   
C20      C      0.551970000000     0.470670000000     0.039320000000     0.34679    
C21      C      0.511340000000     0.158750000000     0.127070000000     0.349951   
C22      C      0.490060000000     0.085950000000     0.215930000000     0.345293   
C23      C      0.528180000000     0.059050000000     0.128210000000     0.345457   
C24      C      0.606010000000     0.163610000000     0.183770000000     0.348644   
C25      C      0.493020000000     0.229540000000     0.104530000000    -0.0804782  
C26      C      0.497900000000     0.230130000000     0.073490000000     0.036517   
C27      C      0.503680000000     0.203830000000     0.060720000000    -0.0812751  
C28      C      0.506720000000     0.179270000000     0.078960000000     0.0714423  
C29      C      0.496020000000     0.204380000000     0.122120000000     0.0712014  
C30      C      0.500050000000     0.259730000000     0.054890000000     0.0365284  
C31      C      0.477920000000     0.274250000000     0.060400000000    -0.0809462  
C32      C      0.483110000000     0.304420000000     0.044550000000     0.0711189  
C33      C      0.530530000000     0.305340000000     0.517170000000     0.0715627  
C34      C      0.526090000000     0.275270000000     0.032500000000    -0.0809377  
C35      C      0.711290000000     0.445210000000     0.361440000000    -0.080855   
C36      C      0.721480000000     0.469040000000     0.385560000000     0.0365587  
C37      C      0.757760000000     0.488440000000     0.393260000000    -0.0810312  
C38      C      0.782520000000     0.482450000000     0.377940000000     0.0710053  
C39      C      0.736670000000     0.439820000000     0.346720000000     0.0714808  
C40      C      0.693840000000     0.471050000000     0.403960000000     0.0364058  
C41      C      0.663500000000     0.468920000000     0.390600000000    -0.0811163  
C42      C      0.635140000000     0.464890000000     0.408350000000     0.0712039  
C43      C      0.666990000000     0.467570000000     0.452340000000     0.07101    
C44      C      0.695860000000     0.471600000000     0.435260000000    -0.0803961  
C45      C      0.729580000000     0.265450000000     0.274100000000    -0.0803045  
C46      C      0.731230000000     0.265540000000     0.242790000000     0.0362545  
C47      C      0.760210000000     0.294420000000     0.228650000000    -0.080951   
C48      C      0.785270000000     0.323310000000     0.245550000000     0.0710195  
C49      C      0.755120000000     0.294830000000     0.290310000000     0.0709745  
C50      C      0.701120000000     0.237540000000     0.225030000000     0.0366068  
C51      C      0.683260000000     0.201640000000     0.234020000000    -0.0811197  
C52      C      0.652290000000     0.176740000000     0.219040000000     0.071225   
C53      C      0.657080000000     0.221670000000     0.185780000000     0.0715123  
C54      C      0.688140000000     0.247160000000     0.200090000000    -0.0808679  
C55      C      0.467470000000     0.004360000000     0.336280000000    -0.0808025  
C56      C      0.439280000000     0.000610000000     0.318260000000     0.0365091  
C57      C      0.405160000000     0.971030000000     0.323060000000    -0.0808378  
C58      C      0.400380000000     0.945180000000     0.344300000000     0.0707747  
C59      C      0.461760000000     0.978100000000     0.357160000000     0.0711106  
C60      C      0.446760000000     0.025280000000     0.292580000000     0.0363051  
C61      C      0.472830000000     0.061540000000     0.294730000000    -0.0810178  
C62      C      0.485420000000     0.082370000000     0.268910000000     0.071021   
C63      C      0.444440000000     0.033500000000     0.239240000000     0.070794   
C64      C      0.431370000000     0.011840000000     0.264560000000    -0.0802368  
C65      C      0.547140000000     0.007720000000     0.073270000000    -0.0806715  
C66      C      0.512690000000     0.978970000000     0.067840000000     0.036525   
C67      C      0.484390000000     0.976330000000     0.085080000000    -0.0809082  
C68      C      0.490450000000     0.002670000000     0.105960000000     0.0714016  
C69      C      0.552260000000     0.033750000000     0.094460000000     0.0707923  
C70      C      0.505150000000     0.953830000000     0.542490000000     0.0363682  
C71      C      0.522060000000     0.966390000000     0.514810000000    -0.080208   
C72      C      0.509220000000     0.944510000000     0.489560000000     0.0708169  
C73      C      0.465310000000     0.897140000000     0.518780000000     0.0710872  
C74      C      0.477720000000     0.918090000000     0.544530000000    -0.0811298  
C75      C      0.998980000000     0.442650000000     0.474890000000    -0.0811518  
C76      C      0.968520000000     0.446140000000     0.472010000000     0.0365879  
C77      C      0.963940000000     0.468290000000     0.492260000000    -0.0808591  
C78      C      0.989940000000     0.487380000000     0.513730000000     0.071042   
C79      C      0.024580000000     0.462230000000     0.496760000000     0.0711096  
C80      C      0.943200000000     0.429790000000     0.446570000000     0.0363289  
C81      C      0.955860000000     0.429720000000     0.417720000000    -0.0802659  
C82      C      0.932970000000     0.421110000000     0.393180000000     0.0711034  
C83      C      0.884720000000     0.409920000000     0.425140000000     0.0712379  
C84      C      0.906730000000     0.418000000000     0.450170000000    -0.0809811  
C85      C      0.983810000000     0.533630000000     0.252510000000    -0.0815973  
C86      C      0.975400000000     0.535140000000     0.222500000000     0.0363398  
C87      C      0.939430000000     0.521150000000     0.214680000000    -0.0804455  
C88      C      0.912760000000     0.503580000000     0.236180000000     0.0710422  
C89      C      0.956510000000     0.515890000000     0.273370000000     0.0713005  
C90      C      0.003390000000     0.547070000000     0.199030000000     0.0365347  
C91      C      0.003400000000     0.566900000000     0.174210000000    -0.0807607  
C92      C      0.027150000000     0.573450000000     0.150580000000     0.0707043  
C93      C      0.051600000000     0.542400000000     0.176020000000     0.0712666  
C94      C      0.028590000000     0.535710000000     0.200060000000    -0.0810208  
C95      C      0.273420000000     0.725180000000     0.453330000000    -0.0812999  
C96      C      0.253270000000     0.735330000000     0.471090000000     0.0364884  
C97      C      0.265290000000     0.771900000000     0.474510000000    -0.0809722  
C98      C      0.297170000000     0.797250000000     0.460840000000     0.071064   
C99      C      0.305090000000     0.751110000000     0.440190000000     0.0715132  
C100     C      0.221180000000     0.707610000000     0.487140000000     0.0362588  
C101     C      0.198170000000     0.674890000000     0.473350000000    -0.0812824  
C102     C      0.171630000000     0.646910000000     0.490000000000     0.0711527  
C103     C      0.188070000000     0.683570000000     0.033180000000     0.0711613  
C104     C      0.215060000000     0.712180000000     0.517180000000    -0.0804421  
C105     C      0.548670000000     0.493640000000     0.117260000000    -0.0811657  
C106     C      0.537250000000     0.518690000000     0.114200000000     0.036497   
C107     C      0.536710000000     0.531460000000     0.085500000000    -0.0803473  
C108     C      0.544320000000     0.516870000000     0.060600000000     0.0712753  
C109     C      0.555760000000     0.479410000000     0.091890000000     0.0713301  
C110     C      0.521670000000     0.527860000000     0.140070000000     0.0365011  
C111     C      0.499520000000     0.501140000000     0.160310000000    -0.0808629  
C112     C      0.480770000000     0.508230000000     0.181990000000     0.0712106  
C113     C      0.506500000000     0.568210000000     0.165380000000     0.0708857  
C114     C      0.525730000000     0.562010000000     0.143290000000    -0.0807839  
C115     C      0.439930000000     0.420780000000     0.382490000000    -0.0803997  
C116     C      0.426350000000     0.443210000000     0.390150000000     0.0364126  
C117     C      0.427900000000     0.453240000000     0.420140000000    -0.0812008  
C118     C      0.445540000000     0.443590000000     0.441080000000     0.0711615  
C119     C      0.457300000000     0.411530000000     0.404070000000     0.0711771  
C120     C      0.415080000000     0.459730000000     0.366520000000     0.0364585  
C121     C      0.426610000000     0.496330000000     0.367780000000    -0.0809181  
C122     C      0.420860000000     0.513150000000     0.343580000000     0.0712596  
C123     C      0.390420000000     0.458120000000     0.317440000000     0.0707254  
C124     C      0.395960000000     0.440400000000     0.341260000000    -0.0808277  
C125     C      0.412860000000     0.693830000000     0.288700000000    -0.0814415  
C126     C      0.445700000000     0.716860000000     0.302240000000     0.0364587  
C127     C      0.473010000000     0.708380000000     0.300580000000    -0.0811034  
C128     C      0.466850000000     0.677120000000     0.285950000000     0.0710442  
C129     C      0.407500000000     0.662730000000     0.274670000000     0.0714003  
C130     C      0.450260000000     0.748430000000     0.319170000000     0.0363853  
C131     C      0.436860000000     0.769560000000     0.307690000000    -0.081674   
C132     C      0.436080000000     0.795600000000     0.325580000000     0.0714007  
C133     C      0.463560000000     0.782000000000     0.365390000000     0.0712248  
C134     C      0.464890000000     0.755730000000     0.348010000000    -0.0807312  
C135     C      0.245380000000     0.558600000000     0.118440000000    -0.0813528  
C136     C      0.236640000000     0.526280000000     0.132520000000     0.0363772  
C137     C      0.201060000000     0.498410000000     0.131640000000    -0.0809181  
C138     C      0.175120000000     0.503540000000     0.117320000000     0.0709313  
C139     C      0.218850000000     0.562910000000     0.104690000000     0.0712533  
C140     C      0.264550000000     0.522840000000     0.149140000000     0.0363235  
C141     C      0.298970000000     0.537040000000     0.137250000000    -0.081515   
C142     C      0.326410000000     0.538520000000     0.154710000000     0.0711403  
C143     C      0.286260000000     0.510290000000     0.194940000000     0.0710071  
C144     C      0.258060000000     0.508310000000     0.178010000000    -0.0805818  
C145     C      0.461400000000     0.546040000000     0.703020000000     0.346479   
C146     C      0.427240000000     0.622250000000     0.761490000000     0.346787   
C147     C      0.348590000000     0.532420000000     0.701540000000     0.347603   
C148     C      0.403110000000     0.512460000000     0.793350000000     0.345851   
C149     C      0.158060000000     0.541800000000     0.592810000000     0.346485   
C150     C      0.047170000000     0.507040000000     0.034700000000     0.346671   
C151     C      0.069630000000     0.562150000000     0.626300000000     0.346151   
C152     C      0.145010000000     0.621590000000     0.536720000000     0.347669   
C153     C      0.442060000000     0.822600000000     0.872990000000     0.349455   
C154     C      0.462780000000     0.892940000000     0.965810000000     0.345759   
C155     C      0.425050000000     0.920790000000     0.878350000000     0.344961   
C156     C      0.349770000000     0.811610000000     0.932990000000     0.348087   
C157     C      0.895160000000     0.477180000000     0.784380000000     0.345555   
C158     C      0.795280000000     0.448380000000     0.843380000000     0.34953    
C159     C      0.803370000000     0.354790000000     0.791650000000     0.347254   
C160     C      0.878360000000     0.412140000000     0.872570000000     0.346206   
C161     C      0.484330000000     0.420960000000     0.952040000000     0.34535    
C162     C      0.517600000000     0.352270000000     0.010940000000     0.349626   
C163     C      0.606320000000     0.453330000000     0.955600000000     0.347231   
C164     C      0.551990000000     0.470680000000     0.539320000000     0.347048   
C165     C      0.511340000000     0.158760000000     0.627080000000     0.349746   
C166     C      0.490050000000     0.085950000000     0.715940000000     0.34523    
C167     C      0.528180000000     0.059060000000     0.628210000000     0.345623   
C168     C      0.606010000000     0.163610000000     0.683780000000     0.348447   
C169     C      0.493020000000     0.229550000000     0.604540000000    -0.0804555  
C170     C      0.497890000000     0.230140000000     0.573490000000     0.0364541  
C171     C      0.503670000000     0.203830000000     0.560730000000    -0.0812463  
C172     C      0.506710000000     0.179270000000     0.578970000000     0.0714706  
C173     C      0.496020000000     0.204390000000     0.622130000000     0.0711671  
C174     C      0.500050000000     0.259740000000     0.554900000000     0.0365618  
C175     C      0.477920000000     0.274250000000     0.560410000000    -0.0809755  
C176     C      0.483110000000     0.304420000000     0.544560000000     0.0711011  
C177     C      0.530540000000     0.305350000000     0.017170000000     0.0715923  
C178     C      0.526070000000     0.275270000000     0.532500000000    -0.0809057  
C179     C      0.711290000000     0.445220000000     0.861440000000    -0.0808526  
C180     C      0.721480000000     0.469050000000     0.885560000000     0.0365724  
C181     C      0.757760000000     0.488450000000     0.893260000000    -0.081039   
C182     C      0.782520000000     0.482460000000     0.877940000000     0.070994   
C183     C      0.736680000000     0.439830000000     0.846720000000     0.0714977  
C184     C      0.693840000000     0.471060000000     0.903960000000     0.0363366  
C185     C      0.663500000000     0.468930000000     0.890610000000    -0.0809463  
C186     C      0.635130000000     0.464900000000     0.908350000000     0.0710234  
C187     C      0.666990000000     0.467580000000     0.952340000000     0.0710354  
C188     C      0.695860000000     0.471600000000     0.935260000000    -0.080352   
C189     C      0.729580000000     0.265460000000     0.774100000000    -0.0803661  
C190     C      0.731230000000     0.265550000000     0.742790000000     0.0363139  
C191     C      0.760210000000     0.294430000000     0.728650000000    -0.0810409  
C192     C      0.785270000000     0.323320000000     0.745550000000     0.0710421  
C193     C      0.755120000000     0.294830000000     0.790310000000     0.0709786  
C194     C      0.701120000000     0.237550000000     0.725030000000     0.0365507  
C195     C      0.683260000000     0.201650000000     0.734020000000    -0.0810458  
C196     C      0.652290000000     0.176740000000     0.719040000000     0.0711286  
C197     C      0.657080000000     0.221680000000     0.685780000000     0.0714856  
C198     C      0.688140000000     0.247160000000     0.700090000000    -0.0807931  
C199     C      0.467470000000     0.004350000000     0.836280000000    -0.0807157  
C200     C      0.439280000000     0.000600000000     0.818260000000     0.0364689  
C201     C      0.405160000000     0.971030000000     0.823060000000    -0.0808251  
C202     C      0.400380000000     0.945180000000     0.844300000000     0.0707446  
C203     C      0.461760000000     0.978090000000     0.857160000000     0.0710742  
C204     C      0.446770000000     0.025280000000     0.792580000000     0.0363536  
C205     C      0.472840000000     0.061540000000     0.794730000000    -0.0810871  
C206     C      0.485410000000     0.082370000000     0.768910000000     0.0710766  
C207     C      0.444440000000     0.033510000000     0.739240000000     0.0708206  
C208     C      0.431370000000     0.011840000000     0.764570000000    -0.0802464  
C209     C      0.547150000000     0.007730000000     0.573270000000    -0.0806097  
C210     C      0.512690000000     0.978980000000     0.567840000000     0.0364664  
C211     C      0.484390000000     0.976340000000     0.585080000000    -0.0808858  
C212     C      0.490450000000     0.002680000000     0.605960000000     0.0713911  
C213     C      0.552270000000     0.033760000000     0.594460000000     0.0707007  
C214     C      0.505140000000     0.953820000000     0.042490000000     0.0363071  
C215     C      0.522050000000     0.966390000000     0.014800000000    -0.0800904  
C216     C      0.509220000000     0.944500000000     0.989560000000     0.0706545  
C217     C      0.465310000000     0.897130000000     0.018780000000     0.0712067  
C218     C      0.477710000000     0.918080000000     0.044520000000    -0.0811117  
C219     C      0.998980000000     0.442650000000     0.974880000000    -0.0811534  
C220     C      0.968520000000     0.446140000000     0.972010000000     0.0366425  
C221     C      0.963930000000     0.468290000000     0.992260000000    -0.0810746  
C222     C      0.989940000000     0.487370000000     0.013740000000     0.0711876  
C223     C      0.024590000000     0.462230000000     0.996760000000     0.070952   
C224     C      0.943210000000     0.429790000000     0.946570000000     0.0362908  
C225     C      0.955860000000     0.429730000000     0.917710000000    -0.0802548  
C226     C      0.932970000000     0.421120000000     0.893180000000     0.0711658  
C227     C      0.884730000000     0.409930000000     0.925140000000     0.0712645  
C228     C      0.906730000000     0.418000000000     0.950170000000    -0.0810685  
C229     C      0.983810000000     0.533640000000     0.752510000000    -0.0815983  
C230     C      0.975400000000     0.535150000000     0.722500000000     0.0363398  
C231     C      0.939430000000     0.521160000000     0.714680000000    -0.0804586  
C232     C      0.912760000000     0.503590000000     0.736180000000     0.0710428  
C233     C      0.956510000000     0.515900000000     0.773370000000     0.0713075  
C234     C      0.003390000000     0.547080000000     0.699030000000     0.0365464  
C235     C      0.003400000000     0.566900000000     0.674210000000    -0.0808156  
C236     C      0.027150000000     0.573450000000     0.650580000000     0.0707863  
C237     C      0.051600000000     0.542410000000     0.676020000000     0.0712937  
C238     C      0.028590000000     0.535710000000     0.700060000000    -0.0810401  
C239     C      0.273410000000     0.725180000000     0.953320000000    -0.0812889  
C240     C      0.253260000000     0.735330000000     0.971080000000     0.0364864  
C241     C      0.265290000000     0.771900000000     0.974510000000    -0.0809627  
C242     C      0.297170000000     0.797250000000     0.960840000000     0.0709999  
C243     C      0.305080000000     0.751100000000     0.940190000000     0.0715343  
C244     C      0.221170000000     0.707610000000     0.987140000000     0.0361696  
C245     C      0.198160000000     0.674890000000     0.973340000000    -0.0813032  
C246     C      0.171620000000     0.646910000000     0.990000000000     0.0710749  
C247     C      0.188080000000     0.683570000000     0.533180000000     0.0711742  
C248     C      0.215060000000     0.712180000000     0.017180000000    -0.0803529  
C249     C      0.548670000000     0.493630000000     0.617260000000    -0.0811854  
C250     C      0.537250000000     0.518680000000     0.614200000000     0.0364966  
C251     C      0.536710000000     0.531460000000     0.585500000000    -0.0803476  
C252     C      0.544330000000     0.516870000000     0.560600000000     0.0712716  
C253     C      0.555770000000     0.479410000000     0.591890000000     0.0713559  
C254     C      0.521670000000     0.527860000000     0.640070000000     0.0364946  
C255     C      0.499520000000     0.501130000000     0.660300000000    -0.0808137  
C256     C      0.480760000000     0.508220000000     0.681990000000     0.0711554  
C257     C      0.506490000000     0.568210000000     0.665380000000     0.0708553  
C258     C      0.525720000000     0.562010000000     0.643290000000    -0.0808122  
C259     C      0.439920000000     0.420770000000     0.882490000000    -0.0804465  
C260     C      0.426350000000     0.443190000000     0.890150000000     0.0364966  
C261     C      0.427890000000     0.453220000000     0.920140000000    -0.081313   
C262     C      0.445530000000     0.443570000000     0.941070000000     0.0712615  
C263     C      0.457300000000     0.411520000000     0.904070000000     0.0711806  
C264     C      0.415070000000     0.459710000000     0.866510000000     0.0364425  
C265     C      0.426600000000     0.496310000000     0.867770000000    -0.0808646  
C266     C      0.420850000000     0.513130000000     0.843580000000     0.071253   
C267     C      0.390420000000     0.458110000000     0.817440000000     0.0707855  
C268     C      0.395960000000     0.440390000000     0.841260000000    -0.0808223  
C269     C      0.412850000000     0.693820000000     0.788700000000    -0.0814113  
C270     C      0.445700000000     0.716850000000     0.802230000000     0.0364689  
C271     C      0.473000000000     0.708360000000     0.800580000000    -0.0811319  
C272     C      0.466840000000     0.677100000000     0.785950000000     0.0711188  
C273     C      0.407490000000     0.662720000000     0.774670000000     0.0713095  
C274     C      0.450250000000     0.748420000000     0.819170000000     0.0363693  
C275     C      0.436850000000     0.769550000000     0.807690000000    -0.0817303  
C276     C      0.436080000000     0.795580000000     0.825570000000     0.0714249  
C277     C      0.463560000000     0.781990000000     0.865390000000     0.0711154  
C278     C      0.464880000000     0.755720000000     0.848010000000    -0.0806246  
C279     C      0.245380000000     0.558590000000     0.618440000000    -0.0814102  
C280     C      0.236630000000     0.526270000000     0.632520000000     0.0364009  
C281     C      0.201050000000     0.498400000000     0.631640000000    -0.0809102  
C282     C      0.175110000000     0.503530000000     0.617330000000     0.0708546  
C283     C      0.218840000000     0.562900000000     0.604690000000     0.0712992  
C284     C      0.264540000000     0.522830000000     0.649140000000     0.0363106  
C285     C      0.298960000000     0.537030000000     0.637250000000    -0.0815363  
C286     C      0.326400000000     0.538500000000     0.654710000000     0.0711713  
C287     C      0.286250000000     0.510280000000     0.694940000000     0.0709542  
C288     C      0.258060000000     0.508300000000     0.678010000000    -0.080547   
Cd1      Cd     0.409840000000     0.552550000000     0.239610000000     0.51002    
Cd2      Cd     0.104310000000     0.558040000000     0.072410000000     0.509863   
Cd3      Cd     0.420820000000     0.861910000000     0.412340000000     0.509369   
Cd4      Cd     0.842020000000     0.422610000000     0.322750000000     0.508712   
Cd5      Cd     0.540310000000     0.423750000000     0.489340000000     0.509037   
Cd6      Cd     0.533590000000     0.117700000000     0.163350000000     0.508973   
Cd7      Cd     0.409830000000     0.552540000000     0.739610000000     0.51005    
Cd8      Cd     0.104310000000     0.558040000000     0.572410000000     0.509831   
Cd9      Cd     0.420820000000     0.861900000000     0.912340000000     0.509343   
Cd10     Cd     0.842020000000     0.422610000000     0.822760000000     0.508702   
Cd11     Cd     0.540310000000     0.423750000000     0.989340000000     0.508935   
Cd12     Cd     0.533590000000     0.117700000000     0.663350000000     0.508967   
H1       H      0.506730000000     0.202690000000     0.036780000000     0.0559462  
H2       H      0.512250000000     0.160030000000     0.068200000000     0.0352697  
H3       H      0.493330000000     0.205560000000     0.146140000000     0.0352094  
H4       H      0.488640000000     0.249430000000     0.115410000000     0.0562863  
H5       H      0.457080000000     0.262740000000     0.077160000000     0.0558377  
H6       H      0.466050000000     0.315410000000     0.049940000000     0.0349595  
H7       H      0.551680000000     0.317070000000     0.500640000000     0.0355581  
H8       H      0.544070000000     0.265270000000     0.027630000000     0.0566048  
H9       H      0.766890000000     0.507570000000     0.411430000000     0.0557486  
H10      H      0.810180000000     0.497220000000     0.385090000000     0.0349767  
H11      H      0.727400000000     0.420240000000     0.328840000000     0.035511   
H12      H      0.683550000000     0.429400000000     0.354820000000     0.0567781  
H13      H      0.661170000000     0.469240000000     0.366510000000     0.055933   
H14      H      0.611620000000     0.462040000000     0.397090000000     0.0354324  
H15      H      0.668970000000     0.466620000000     0.476450000000     0.0354935  
H16      H      0.718720000000     0.473090000000     0.446580000000     0.0563786  
H17      H      0.762960000000     0.295240000000     0.204550000000     0.0559664  
H18      H      0.806590000000     0.345680000000     0.233640000000     0.0355412  
H19      H      0.752060000000     0.294390000000     0.314390000000     0.0354423  
H20      H      0.707610000000     0.243750000000     0.285990000000     0.0563307  
H21      H      0.692690000000     0.192950000000     0.252900000000     0.0558042  
H22      H      0.638660000000     0.149420000000     0.227150000000     0.035072   
H23      H      0.647340000000     0.230560000000     0.167200000000     0.0354662  
H24      H      0.700860000000     0.274610000000     0.192460000000     0.0568283  
H25      H      0.382490000000     0.967330000000     0.309950000000     0.055635   
H26      H      0.373880000000     0.922120000000     0.346760000000     0.0351214  
H27      H      0.484660000000     0.981580000000     0.369880000000     0.0362275  
H28      H      0.494380000000     0.026460000000     0.333250000000     0.0565157  
H29      H      0.484740000000     0.073350000000     0.316060000000     0.0555255  
H30      H      0.506930000000     0.109760000000     0.271310000000     0.034886   
H31      H      0.433150000000     0.021510000000     0.217770000000     0.0360698  
H32      H      0.411120000000     0.984040000000     0.261750000000     0.0561724  
H33      H      0.457210000000     0.954990000000     0.081510000000     0.0564948  
H34      H      0.467500000000     0.999970000000     0.118120000000     0.0364862  
H35      H      0.579090000000     0.056110000000     0.097490000000     0.0348952  
H36      H      0.569900000000     0.010580000000     0.060780000000     0.0555515  
H37      H      0.543420000000     0.993750000000     0.512090000000     0.0560705  
H38      H      0.521750000000     0.955880000000     0.468260000000     0.0360966  
H39      H      0.442770000000     0.870260000000     0.521030000000     0.0346057  
H40      H      0.464650000000     0.906830000000     0.565640000000     0.0555135  
H41      H      0.941180000000     0.472330000000     0.490740000000     0.0564512  
H42      H      0.985650000000     0.504920000000     0.528360000000     0.035663   
H43      H      0.048210000000     0.459540000000     0.497860000000     0.0352325  
H44      H      0.003390000000     0.425460000000     0.459990000000     0.0558131  
H45      H      0.983780000000     0.438550000000     0.413770000000     0.0560033  
H46      H      0.944230000000     0.423190000000     0.371110000000     0.0357361  
H47      H      0.857090000000     0.402650000000     0.428790000000     0.0350642  
H48      H      0.895500000000     0.416520000000     0.472130000000     0.0555695  
H49      H      0.931710000000     0.521710000000     0.191740000000     0.0564393  
H50      H      0.885170000000     0.491570000000     0.228980000000     0.035609   
H51      H      0.964130000000     0.514040000000     0.296120000000     0.0354131  
H52      H      0.011320000000     0.544840000000     0.259620000000     0.0560543  
H53      H      0.984630000000     0.576550000000     0.172730000000     0.0557788  
H54      H      0.025710000000     0.587970000000     0.131360000000     0.0356735  
H55      H      0.069810000000     0.532020000000     0.177340000000     0.0353033  
H56      H      0.029390000000     0.520050000000     0.218650000000     0.0568302  
H57      H      0.250340000000     0.780890000000     0.487820000000     0.0558745  
H58      H      0.305930000000     0.825290000000     0.464310000000     0.0350615  
H59      H      0.320110000000     0.741940000000     0.427130000000     0.0354199  
H60      H      0.265510000000     0.697300000000     0.450370000000     0.0565866  
H61      H      0.201320000000     0.670480000000     0.449980000000     0.0559345  
H62      H      0.155250000000     0.621650000000     0.478680000000     0.0350843  
H63      H      0.185110000000     0.687640000000     0.056690000000     0.0355902  
H64      H      0.232200000000     0.737020000000     0.528750000000     0.0561549  
H65      H      0.528120000000     0.550840000000     0.081990000000     0.056151   
H66      H      0.541780000000     0.526100000000     0.038690000000     0.0356782  
H67      H      0.562780000000     0.458780000000     0.095150000000     0.0350619  
H68      H      0.550550000000     0.483810000000     0.139070000000     0.0556667  
H69      H      0.495130000000     0.474220000000     0.158550000000     0.0565372  
H70      H      0.463100000000     0.486390000000     0.196540000000     0.035604   
H71      H      0.509510000000     0.594660000000     0.166680000000     0.0354111  
H72      H      0.542970000000     0.583610000000     0.128420000000     0.0556363  
H73      H      0.416940000000     0.469800000000     0.427180000000     0.055855   
H74      H      0.447580000000     0.453280000000     0.463760000000     0.0354243  
H75      H      0.469070000000     0.395680000000     0.396950000000     0.0357421  
H76      H      0.439310000000     0.412350000000     0.359600000000     0.0564513  
H77      H      0.441750000000     0.512460000000     0.386680000000     0.0567597  
H78      H      0.431400000000     0.541760000000     0.345130000000     0.0353453  
H79      H      0.376510000000     0.442550000000     0.297880000000     0.0356583  
H80      H      0.386160000000     0.411970000000     0.339560000000     0.0558565  
H81      H      0.498860000000     0.725650000000     0.310620000000     0.0563026  
H82      H      0.488430000000     0.671150000000     0.285370000000     0.0357066  
H83      H      0.381400000000     0.645350000000     0.265000000000     0.0352201  
H84      H      0.390890000000     0.699160000000     0.289760000000     0.0568339  
H85      H      0.425990000000     0.765250000000     0.285270000000     0.0562905  
H86      H      0.424400000000     0.810550000000     0.316110000000     0.0352198  
H87      H      0.473740000000     0.785900000000     0.388060000000     0.0351764  
H88      H      0.475520000000     0.739980000000     0.357690000000     0.0566354  
H89      H      0.193280000000     0.472910000000     0.142070000000     0.056231   
H90      H      0.147770000000     0.481580000000     0.117400000000     0.0356677  
H91      H      0.226770000000     0.588660000000     0.094610000000     0.035267   
H92      H      0.272460000000     0.580990000000     0.118860000000     0.0566522  
H93      H      0.304940000000     0.547880000000     0.114790000000     0.0561431  
H94      H      0.352880000000     0.550690000000     0.144890000000     0.0352388  
H95      H      0.280560000000     0.500030000000     0.217600000000     0.0355547  
H96      H      0.231820000000     0.497110000000     0.188040000000     0.0565369  
H97      H      0.506720000000     0.202690000000     0.536790000000     0.0559272  
H98      H      0.512230000000     0.160030000000     0.568210000000     0.0352463  
H99      H      0.493340000000     0.205580000000     0.646140000000     0.0351897  
H100     H      0.488650000000     0.249440000000     0.615420000000     0.0562909  
H101     H      0.457080000000     0.262750000000     0.577170000000     0.0558397  
H102     H      0.466050000000     0.315420000000     0.549950000000     0.034963   
H103     H      0.551700000000     0.317070000000     0.000640000000     0.0355747  
H104     H      0.544060000000     0.265270000000     0.527620000000     0.0565545  
H105     H      0.766890000000     0.507580000000     0.911430000000     0.0557418  
H106     H      0.810180000000     0.497230000000     0.885090000000     0.034976   
H107     H      0.727410000000     0.420250000000     0.828850000000     0.0355026  
H108     H      0.683550000000     0.429410000000     0.854820000000     0.056776   
H109     H      0.661170000000     0.469250000000     0.866510000000     0.0558603  
H110     H      0.611620000000     0.462050000000     0.897090000000     0.0354618  
H111     H      0.668970000000     0.466630000000     0.976450000000     0.0354723  
H112     H      0.718730000000     0.473100000000     0.946580000000     0.0563454  
H113     H      0.762960000000     0.295240000000     0.704560000000     0.0560113  
H114     H      0.806590000000     0.345690000000     0.733650000000     0.0355333  
H115     H      0.752060000000     0.294390000000     0.814390000000     0.0354311  
H116     H      0.707620000000     0.243760000000     0.785990000000     0.0563513  
H117     H      0.692690000000     0.192960000000     0.752900000000     0.0557786  
H118     H      0.638670000000     0.149430000000     0.727160000000     0.0350695  
H119     H      0.647340000000     0.230560000000     0.667200000000     0.0354695  
H120     H      0.700860000000     0.274620000000     0.692460000000     0.0567856  
H121     H      0.382490000000     0.967330000000     0.809950000000     0.0556278  
H122     H      0.373880000000     0.922110000000     0.846760000000     0.0351387  
H123     H      0.484660000000     0.981570000000     0.869870000000     0.036229   
H124     H      0.494390000000     0.026460000000     0.833240000000     0.0564664  
H125     H      0.484740000000     0.073350000000     0.816060000000     0.0555434  
H126     H      0.506930000000     0.109760000000     0.771310000000     0.0348668  
H127     H      0.433150000000     0.021510000000     0.717770000000     0.0360519  
H128     H      0.411120000000     0.984040000000     0.761750000000     0.0561684  
H129     H      0.457210000000     0.955000000000     0.581510000000     0.0564782  
H130     H      0.467500000000     0.999980000000     0.618120000000     0.0364894  
H131     H      0.579090000000     0.056120000000     0.597490000000     0.0349153  
H132     H      0.569910000000     0.010590000000     0.560780000000     0.0555267  
H133     H      0.543410000000     0.993740000000     0.012080000000     0.0560829  
H134     H      0.521750000000     0.955870000000     0.968260000000     0.0361107  
H135     H      0.442770000000     0.870250000000     0.021030000000     0.0346125  
H136     H      0.464650000000     0.906820000000     0.065640000000     0.0555018  
H137     H      0.941180000000     0.472320000000     0.990750000000     0.0565253  
H138     H      0.985640000000     0.504900000000     0.028360000000     0.0356299  
H139     H      0.048210000000     0.459550000000     0.997860000000     0.0352252  
H140     H      0.003400000000     0.425470000000     0.959990000000     0.05582    
H141     H      0.983790000000     0.438560000000     0.913770000000     0.0559767  
H142     H      0.944240000000     0.423200000000     0.871100000000     0.0357327  
H143     H      0.857090000000     0.402650000000     0.928790000000     0.0350627  
H144     H      0.895510000000     0.416520000000     0.972120000000     0.0556093  
H145     H      0.931710000000     0.521710000000     0.691740000000     0.0564424  
H146     H      0.885170000000     0.491580000000     0.728980000000     0.0356054  
H147     H      0.964130000000     0.514050000000     0.796120000000     0.035407   
H148     H      0.011320000000     0.544850000000     0.759620000000     0.0560501  
H149     H      0.984630000000     0.576550000000     0.672730000000     0.0557875  
H150     H      0.025710000000     0.587970000000     0.631350000000     0.0356577  
H151     H      0.069810000000     0.532020000000     0.677340000000     0.0353031  
H152     H      0.029390000000     0.520050000000     0.718650000000     0.0568332  
H153     H      0.250340000000     0.780890000000     0.987820000000     0.0558469  
H154     H      0.305930000000     0.825290000000     0.964310000000     0.0350678  
H155     H      0.320110000000     0.741930000000     0.927130000000     0.0354149  
H156     H      0.265500000000     0.697290000000     0.950370000000     0.0565533  
H157     H      0.201310000000     0.670480000000     0.949980000000     0.0559573  
H158     H      0.155240000000     0.621650000000     0.978670000000     0.0350784  
H159     H      0.185110000000     0.687640000000     0.556690000000     0.035581   
H160     H      0.232200000000     0.737010000000     0.028750000000     0.0561799  
H161     H      0.528120000000     0.550840000000     0.581990000000     0.0561428  
H162     H      0.541780000000     0.526100000000     0.538690000000     0.0356577  
H163     H      0.562790000000     0.458780000000     0.595150000000     0.03505    
H164     H      0.550550000000     0.483800000000     0.639070000000     0.0556674  
H165     H      0.495130000000     0.474210000000     0.658550000000     0.0565243  
H166     H      0.463090000000     0.486380000000     0.696540000000     0.0356199  
H167     H      0.509510000000     0.594650000000     0.666680000000     0.035395   
H168     H      0.542970000000     0.583600000000     0.628430000000     0.05566    
H169     H      0.416930000000     0.469780000000     0.927180000000     0.0558693  
H170     H      0.447570000000     0.453270000000     0.963760000000     0.0353921  
H171     H      0.469080000000     0.395670000000     0.896950000000     0.0357426  
H172     H      0.439310000000     0.412340000000     0.859600000000     0.0564519  
H173     H      0.441740000000     0.512450000000     0.886680000000     0.0567081  
H174     H      0.431380000000     0.541740000000     0.845130000000     0.0353402  
H175     H      0.376510000000     0.442530000000     0.797880000000     0.0356314  
H176     H      0.386160000000     0.411950000000     0.839560000000     0.055824   
H177     H      0.498850000000     0.725640000000     0.810620000000     0.0563023  
H178     H      0.488420000000     0.671130000000     0.785370000000     0.0356813  
H179     H      0.381390000000     0.645330000000     0.765000000000     0.0352455  
H180     H      0.390880000000     0.699150000000     0.789760000000     0.056826   
H181     H      0.425980000000     0.765240000000     0.785270000000     0.0563027  
H182     H      0.424400000000     0.810540000000     0.816110000000     0.0352286  
H183     H      0.473730000000     0.785890000000     0.888050000000     0.0351884  
H184     H      0.475520000000     0.739970000000     0.857700000000     0.0565741  
H185     H      0.193270000000     0.472900000000     0.642070000000     0.0562248  
H186     H      0.147770000000     0.481580000000     0.617400000000     0.0356729  
H187     H      0.226770000000     0.588650000000     0.594610000000     0.0352418  
H188     H      0.272450000000     0.580980000000     0.618870000000     0.0566814  
H189     H      0.304940000000     0.547860000000     0.614790000000     0.0561484  
H190     H      0.352870000000     0.550680000000     0.644890000000     0.0352262  
H191     H      0.280560000000     0.500020000000     0.717600000000     0.0355704  
H192     H      0.231820000000     0.497100000000     0.688050000000     0.056513   
N1       N      0.504080000000     0.180310000000     0.109480000000    -0.179303   
N2       N      0.509910000000     0.320400000000     0.023750000000    -0.17929    
N3       N      0.771780000000     0.457430000000     0.355550000000    -0.179276   
N4       N      0.636330000000     0.462760000000     0.438900000000    -0.178742   
N5       N      0.781870000000     0.324100000000     0.276010000000    -0.178661   
N6       N      0.638700000000     0.187010000000     0.195770000000    -0.178707   
N7       N      0.428780000000     0.948150000000     0.360390000000    -0.178358   
N8       N      0.472650000000     0.067800000000     0.241270000000    -0.178446   
N9       N      0.523890000000     0.031720000000     0.109950000000    -0.178438   
N10      N      0.479730000000     0.910980000000     0.491330000000    -0.178719   
N11      N      0.020490000000     0.485170000000     0.515420000000    -0.178589   
N12      N      0.898250000000     0.413270000000     0.396830000000    -0.178378   
N13      N      0.921290000000     0.499550000000     0.264920000000    -0.178391   
N14      N      0.050080000000     0.560090000000     0.151090000000    -0.178644   
N15      N      0.317210000000     0.786850000000     0.444340000000    -0.178655   
N16      N      0.167590000000     0.650820000000     0.519950000000    -0.178595   
N17      N      0.551770000000     0.489650000000     0.063780000000    -0.178553   
N18      N      0.483340000000     0.541150000000     0.183880000000    -0.178721   
N19      N      0.461650000000     0.424440000000     0.432710000000    -0.178235   
N20      N      0.404020000000     0.494440000000     0.318220000000    -0.178576   
N21      N      0.434090000000     0.654170000000     0.273670000000    -0.178552   
N22      N      0.447990000000     0.800730000000     0.354590000000    -0.179104   
N23      N      0.183910000000     0.535820000000     0.104540000000    -0.178409   
N24      N      0.320360000000     0.526440000000     0.183680000000    -0.178605   
N25      N      0.504070000000     0.180320000000     0.609480000000    -0.179221   
N26      N      0.509900000000     0.320390000000     0.523750000000    -0.179239   
N27      N      0.771780000000     0.457440000000     0.855550000000    -0.179251   
N28      N      0.636330000000     0.462760000000     0.938910000000    -0.178703   
N29      N      0.781870000000     0.324110000000     0.776010000000    -0.178666   
N30      N      0.638700000000     0.187020000000     0.695770000000    -0.178654   
N31      N      0.428780000000     0.948140000000     0.860390000000    -0.178356   
N32      N      0.472650000000     0.067800000000     0.741270000000    -0.178543   
N33      N      0.523890000000     0.031730000000     0.609950000000    -0.178427   
N34      N      0.479720000000     0.910970000000     0.991330000000    -0.178698   
N35      N      0.020490000000     0.485160000000     0.015430000000    -0.178585   
N36      N      0.898250000000     0.413280000000     0.896820000000    -0.178441   
N37      N      0.921290000000     0.499550000000     0.764920000000    -0.178434   
N38      N      0.050070000000     0.560090000000     0.651090000000    -0.178654   
N39      N      0.317210000000     0.786840000000     0.944340000000    -0.17863    
N40      N      0.167580000000     0.650820000000     0.019950000000    -0.178569   
N41      N      0.551780000000     0.489650000000     0.563780000000    -0.178626   
N42      N      0.483330000000     0.541140000000     0.683880000000    -0.178709   
N43      N      0.461650000000     0.424430000000     0.932710000000    -0.178304   
N44      N      0.404020000000     0.494420000000     0.818220000000    -0.178573   
N45      N      0.434090000000     0.654160000000     0.773670000000    -0.178568   
N46      N      0.447980000000     0.800720000000     0.854590000000    -0.179082   
N47      N      0.183900000000     0.535820000000     0.604540000000    -0.178493   
N48      N      0.320360000000     0.526430000000     0.683680000000    -0.178638   
O1       O      0.451080000000     0.613380000000     0.259210000000    -0.242407   
O2       O      0.388170000000     0.496650000000     0.269210000000    -0.24334    
O3       O      0.461940000000     0.575600000000     0.205170000000    -0.245194   
O4       O      0.380500000000     0.549740000000     0.192200000000    -0.25206    
O5       O      0.344710000000     0.523050000000     0.228800000000    -0.245381   
O6       O      0.437910000000     0.520560000000     0.218450000000    -0.25142    
O7       O      0.396190000000     0.599220000000     0.252860000000    -0.251336   
O8       O      0.419420000000     0.546290000000     0.292520000000    -0.251508   
O9       O      0.076360000000     0.506840000000     0.036780000000    -0.245576   
O10      O      0.140950000000     0.623600000000     0.064620000000    -0.24504    
O11      O      0.125410000000     0.517620000000     0.091540000000    -0.242253   
O12      O      0.087300000000     0.546020000000     0.125020000000    -0.251472   
O13      O      0.069250000000     0.578120000000     0.102640000000    -0.244027   
O14      O      0.165270000000     0.572480000000     0.083730000000    -0.251361   
O15      O      0.044720000000     0.530000000000     0.050550000000    -0.251345   
O16      O      0.128920000000     0.590450000000     0.025610000000    -0.251722   
O17      O      0.474460000000     0.905510000000     0.440070000000    -0.243737   
O18      O      0.362440000000     0.845030000000     0.436180000000    -0.244673   
O19      O      0.450880000000     0.826960000000     0.400370000000    -0.248931   
O20      O      0.451650000000     0.921900000000     0.391250000000    -0.246114   
O21      O      0.395400000000     0.892170000000     0.381790000000    -0.245481   
O22      O      0.425060000000     0.837710000000     0.364110000000    -0.252479   
O23      O      0.432600000000     0.864640000000     0.466540000000    -0.250321   
O24      O      0.369700000000     0.802300000000     0.419660000000    -0.251244   
O25      O      0.827550000000     0.462820000000     0.351680000000    -0.2501     
O26      O      0.890480000000     0.416650000000     0.346160000000    -0.244853   
O27      O      0.862470000000     0.459920000000     0.277010000000    -0.24603    
O28      O      0.826370000000     0.383120000000     0.278780000000    -0.248323   
O29      O      0.799590000000     0.357410000000     0.319450000000    -0.24919    
O30      O      0.902580000000     0.470210000000     0.309990000000    -0.245555   
O31      O      0.785410000000     0.423290000000     0.324580000000    -0.251662   
O32      O      0.848210000000     0.410110000000     0.375440000000    -0.247381   
O33      O      0.500360000000     0.368040000000     0.517240000000    -0.250205   
O34      O      0.546980000000     0.478370000000     0.513080000000    -0.245251   
O35      O      0.501310000000     0.405220000000     0.444670000000    -0.245608   
O36      O      0.576770000000     0.445530000000     0.443630000000    -0.24827    
O37      O      0.605670000000     0.449110000000     0.483660000000    -0.248928   
O38      O      0.492080000000     0.436160000000     0.477340000000    -0.245511   
O39      O      0.543940000000     0.368930000000     0.493540000000    -0.25168    
O40      O      0.553680000000     0.442350000000     0.541890000000    -0.248808   
O41      O      0.480630000000     0.072130000000     0.190230000000    -0.243927   
O42      O      0.587590000000     0.131600000000     0.192830000000    -0.246412   
O43      O      0.509590000000     0.158870000000     0.155350000000    -0.250292   
O44      O      0.501770000000     0.058590000000     0.140890000000    -0.243998   
O45      O      0.558240000000     0.086990000000     0.132310000000    -0.247236   
O46      O      0.522230000000     0.138930000000     0.116050000000    -0.252391   
O47      O      0.518670000000     0.115880000000     0.216980000000    -0.24768    
O48      O      0.591340000000     0.173410000000     0.164320000000    -0.250893   
O49      O      0.451070000000     0.613360000000     0.759210000000    -0.242332   
O50      O      0.388160000000     0.496640000000     0.769210000000    -0.243362   
O51      O      0.461930000000     0.575590000000     0.705170000000    -0.245218   
O52      O      0.380490000000     0.549730000000     0.692200000000    -0.252074   
O53      O      0.344700000000     0.523040000000     0.728800000000    -0.245438   
O54      O      0.437900000000     0.520550000000     0.718440000000    -0.251494   
O55      O      0.396190000000     0.599210000000     0.752850000000    -0.251367   
O56      O      0.419410000000     0.546270000000     0.792520000000    -0.25161    
O57      O      0.076360000000     0.506840000000     0.536780000000    -0.245553   
O58      O      0.140950000000     0.623600000000     0.564620000000    -0.24498    
O59      O      0.125410000000     0.517620000000     0.591540000000    -0.242311   
O60      O      0.087290000000     0.546020000000     0.625020000000    -0.251558   
O61      O      0.069250000000     0.578130000000     0.602640000000    -0.24398    
O62      O      0.165270000000     0.572480000000     0.583740000000    -0.251336   
O63      O      0.044720000000     0.530010000000     0.550540000000    -0.251398   
O64      O      0.128920000000     0.590440000000     0.525610000000    -0.251638   
O65      O      0.474460000000     0.905500000000     0.940060000000    -0.243743   
O66      O      0.362430000000     0.845030000000     0.936180000000    -0.24456    
O67      O      0.450880000000     0.826950000000     0.900370000000    -0.248952   
O68      O      0.451650000000     0.921890000000     0.891240000000    -0.246182   
O69      O      0.395400000000     0.892160000000     0.881780000000    -0.245516   
O70      O      0.425060000000     0.837700000000     0.864110000000    -0.25258    
O71      O      0.432600000000     0.864630000000     0.966540000000    -0.250337   
O72      O      0.369700000000     0.802300000000     0.919660000000    -0.25131    
O73      O      0.827550000000     0.462830000000     0.851680000000    -0.250206   
O74      O      0.890490000000     0.416660000000     0.846150000000    -0.244763   
O75      O      0.862470000000     0.459930000000     0.777010000000    -0.245918   
O76      O      0.826370000000     0.383130000000     0.778780000000    -0.248328   
O77      O      0.799600000000     0.357420000000     0.819450000000    -0.24924    
O78      O      0.902580000000     0.470220000000     0.809990000000    -0.245577   
O79      O      0.785410000000     0.423300000000     0.824580000000    -0.251695   
O80      O      0.848220000000     0.410120000000     0.875440000000    -0.247523   
O81      O      0.500360000000     0.368040000000     0.017240000000    -0.250087   
O82      O      0.546970000000     0.478370000000     0.013080000000    -0.245126   
O83      O      0.501310000000     0.405210000000     0.944670000000    -0.245531   
O84      O      0.576770000000     0.445540000000     0.943630000000    -0.24824    
O85      O      0.605670000000     0.449120000000     0.983670000000    -0.248814   
O86      O      0.492070000000     0.436150000000     0.977340000000    -0.245532   
O87      O      0.543950000000     0.368940000000     0.993540000000    -0.251755   
O88      O      0.553680000000     0.442340000000     0.041890000000    -0.248618   
O89      O      0.480630000000     0.072140000000     0.690230000000    -0.243856   
O90      O      0.587580000000     0.131600000000     0.692830000000    -0.246393   
O91      O      0.509600000000     0.158880000000     0.655360000000    -0.250246   
O92      O      0.501770000000     0.058590000000     0.640890000000    -0.244104   
O93      O      0.558240000000     0.086990000000     0.632310000000    -0.247335   
O94      O      0.522230000000     0.138940000000     0.616050000000    -0.252308   
O95      O      0.518670000000     0.115880000000     0.716980000000    -0.247608   
O96      O      0.591340000000     0.173420000000     0.664320000000    -0.250705   


