data_structure

_audit_creation_method RASPA-1.0
_audit_creation_date 2023-5-23
_audit_author_name 'Poobodin Mano'

_cell_length_a    29.6845
_cell_length_b    59.1418
_cell_length_c    44.7162
_cell_angle_alpha 90.0021
_cell_angle_beta  90.0025
_cell_angle_gamma 120
_cell_volume      67986

_symmetry_cell_setting          triclinic
_symmetry_space_group_name_Hall 'P 1'
_symmetry_space_group_name_H-M  'P 1'
_symmetry_Int_Tables_number     1

_symmetry_equiv_pos_as_xyz 'x,y,z'

loop_
_atom_site_label
_atom_site_type_symbol
_atom_site_fract_x
_atom_site_fract_y
_atom_site_fract_z
_atom_site_charge
C1       C      0.640370000000     0.244900000000     0.488450000000     0.34152    
C2       C      0.821340000000     0.244110000000     0.499430000000     0.34155    
C3       C      0.686670000000     0.208870000000     0.553650000000     0.34165    
C4       C      0.703400000000     0.209310000000     0.433100000000     0.341456   
C5       C      0.563720000000     0.115780000000     0.153770000000     0.34206    
C6       C      0.562280000000     0.206310000000     0.165270000000     0.342072   
C7       C      0.634710000000     0.175090000000     0.220090000000     0.341785   
C8       C      0.634760000000     0.183510000000     0.099630000000     0.341993   
C9       C      0.375040000000     0.298560000000     0.488100000000     0.342323   
C10      C      0.193160000000     0.297340000000     0.500960000000     0.341985   
C11      C      0.332350000000     0.336200000000     0.553830000000     0.343      
C12      C      0.312070000000     0.334060000000     0.433970000000     0.342349   
C13      C      0.451330000000     0.337870000000     0.166740000000     0.342376   
C14      C      0.453510000000     0.428720000000     0.153310000000     0.342214   
C15      C      0.374200000000     0.358340000000     0.101160000000     0.343469   
C16      C      0.379610000000     0.369020000000     0.220850000000     0.342719   
C17      C      0.192440000000     0.338530000000     0.819060000000     0.342262   
C18      C      0.371990000000     0.428340000000     0.835310000000     0.34202    
C19      C      0.310090000000     0.358350000000     0.886840000000     0.343927   
C20      C      0.332250000000     0.368910000000     0.768060000000     0.34411    
C21      C      0.637490000000     0.115130000000     0.832860000000     0.341558   
C22      C      0.819710000000     0.206210000000     0.820600000000     0.341486   
C23      C      0.684870000000     0.174050000000     0.766440000000     0.34191    
C24      C      0.702450000000     0.183010000000     0.886850000000     0.341776   
C25      C      0.497740000000     0.988710000000     0.833820000000    -0.080368   
C26      C      0.483900000000     0.007710000000     0.839750000000     0.0361084  
C27      C      0.431020000000     0.999200000000     0.845020000000    -0.0795848  
C28      C      0.393810000000     0.472580000000     0.843460000000     0.070606   
C29      C      0.459880000000     0.462360000000     0.833200000000     0.0707164  
C30      C      0.524180000000     0.036120000000     0.839300000000     0.0362857  
C31      C      0.576440000000     0.044750000000     0.846620000000    -0.0799347  
C32      C      0.614060000000     0.071190000000     0.844100000000     0.0706296  
C33      C      0.549560000000     0.081210000000     0.828970000000     0.0705353  
C34      C      0.511280000000     0.054910000000     0.830440000000    -0.0802717  
C35      C      0.940150000000     0.269340000000     0.823080000000    -0.0802287  
C36      C      0.977430000000     0.262680000000     0.814430000000     0.0361991  
C37      C      0.959960000000     0.236410000000     0.807220000000    -0.0798335  
C38      C      0.907180000000     0.217660000000     0.809630000000     0.0706047  
C39      C      0.887660000000     0.250260000000     0.824440000000     0.0705462  
C40      C      0.034110000000     0.282750000000     0.814150000000     0.0362647  
C41      C      0.051480000000     0.309320000000     0.808740000000    -0.0797056  
C42      C      0.104570000000     0.327870000000     0.810470000000     0.0705179  
C43      C      0.124220000000     0.294520000000     0.821140000000     0.0707759  
C44      C      0.071640000000     0.275640000000     0.820370000000    -0.0805648  
C45      C      0.305540000000     0.352500000000     0.031190000000    -0.0795552  
C46      C      0.334840000000     0.347040000000     0.010610000000     0.0365436  
C47      C      0.374150000000     0.342910000000     0.022120000000    -0.0804215  
C48      C      0.386020000000     0.346320000000     0.052530000000     0.0716436  
C49      C      0.317010000000     0.354570000000     0.061750000000     0.0711336  
C50      C      0.326500000000     0.347110000000     0.977490000000     0.0365669  
C51      C      0.279090000000     0.343100000000     0.965920000000    -0.0803593  
C52      C      0.274150000000     0.346520000000     0.935480000000     0.0715247  
C53      C      0.359580000000     0.354680000000     0.926410000000     0.0712556  
C54      C      0.366760000000     0.352580000000     0.956970000000    -0.0796228  
C55      C      0.342770000000     0.339870000000     0.698160000000    -0.0795892  
C56      C      0.354540000000     0.360120000000     0.677550000000     0.036581   
C57      C      0.363550000000     0.384140000000     0.689010000000    -0.0803966  
C58      C      0.356780000000     0.386790000000     0.719420000000     0.0715905  
C59      C      0.338680000000     0.343630000000     0.728690000000     0.0712397  
C60      C      0.354570000000     0.355810000000     0.644450000000     0.0365088  
C61      C      0.361590000000     0.335660000000     0.633050000000    -0.0803934  
C62      C      0.354830000000     0.329720000000     0.602620000000     0.0716152  
C63      C      0.340690000000     0.365080000000     0.593210000000     0.0710202  
C64      C      0.344810000000     0.370850000000     0.623770000000    -0.0794537  
C65      C      0.353030000000     0.373540000000     0.365600000000    -0.0806331  
C66      C      0.328540000000     0.354200000000     0.343610000000     0.036394   
C67      C      0.296070000000     0.328410000000     0.352820000000    -0.0809728  
C68      C      0.290270000000     0.322250000000     0.383160000000     0.0708148  
C69      C      0.346180000000     0.366670000000     0.395900000000     0.0707368  
C70      C      0.340180000000     0.360250000000     0.311320000000     0.0363985  
C71      C      0.301550000000     0.347790000000     0.289420000000    -0.0805898  
C72      C      0.314950000000     0.351420000000     0.259080000000     0.0706751  
C73      C      0.403320000000     0.380060000000     0.271620000000     0.0708565  
C74      C      0.391330000000     0.376950000000     0.302000000000    -0.0810002  
C75      C      0.535990000000     0.999260000000     0.141530000000    -0.079726   
C76      C      0.501140000000     0.008160000000     0.148150000000     0.0362281  
C77      C      0.450030000000     0.989570000000     0.155910000000    -0.080591   
C78      C      0.434890000000     0.463170000000     0.156900000000     0.0708528  
C79      C      0.519730000000     0.472620000000     0.143420000000     0.0705811  
C80      C      0.518020000000     0.036590000000     0.148090000000     0.0363367  
C81      C      0.569070000000     0.055340000000     0.155800000000    -0.0803961  
C82      C      0.583700000000     0.081700000000     0.157000000000     0.0706138  
C83      C      0.498540000000     0.071830000000     0.143640000000     0.0708138  
C84      C      0.482860000000     0.045300000000     0.141500000000    -0.0800852  
C85      C      0.565960000000     0.268980000000     0.161890000000    -0.0804691  
C86      C      0.515270000000     0.262100000000     0.170490000000     0.0362795  
C87      C      0.480720000000     0.235810000000     0.177760000000    -0.0799576  
C88      C      0.496740000000     0.217270000000     0.175650000000     0.070754   
C89      C      0.580990000000     0.250120000000     0.160810000000     0.0707939  
C90      C      0.498340000000     0.282050000000     0.170890000000     0.0363615  
C91      C      0.533820000000     0.308560000000     0.176530000000    -0.080016   
C92      C      0.517690000000     0.327080000000     0.174960000000     0.0709297  
C93      C      0.431610000000     0.293810000000     0.164040000000     0.0709117  
C94      C      0.446620000000     0.274930000000     0.164630000000    -0.0805965  
C95      C      0.623600000000     0.186100000000     0.018520000000    -0.0810785  
C96      C      0.674990000000     0.195580000000     0.009340000000     0.0363993  
C97      C      0.713540000000     0.202700000000     0.031310000000    -0.0807023  
C98      C      0.699860000000     0.199310000000     0.061610000000     0.0706932  
C99      C      0.611320000000     0.182830000000     0.048850000000     0.0708679  
C100     C      0.686900000000     0.195500000000     0.977100000000     0.0364285  
C101     C      0.719160000000     0.185870000000     0.967950000000    -0.0810802  
C102     C      0.724730000000     0.182460000000     0.937630000000     0.0707933  
C103     C      0.669270000000     0.199080000000     0.924820000000     0.070717   
C104     C      0.662570000000     0.202620000000     0.955100000000    -0.0807719  
C105     C      0.679930000000     0.165870000000     0.685330000000    -0.0810156  
C106     C      0.661400000000     0.182310000000     0.676110000000     0.0364526  
C107     C      0.647300000000     0.194610000000     0.698040000000    -0.080807   
C108     C      0.653830000000     0.191070000000     0.728350000000     0.0707305  
C109     C      0.686240000000     0.162910000000     0.715680000000     0.0707969  
C110     C      0.661810000000     0.188450000000     0.643870000000     0.0363761  
C111     C      0.681340000000     0.214310000000     0.634780000000    -0.0810311  
C112     C      0.688190000000     0.220570000000     0.604480000000     0.0707451  
C113     C      0.654540000000     0.176090000000     0.591560000000     0.0706748  
C114     C      0.647430000000     0.169130000000     0.621830000000    -0.0807336  
C115     C      0.940960000000     0.240660000000     0.497400000000    -0.0803454  
C116     C      0.978690000000     0.266170000000     0.505290000000     0.036272   
C117     C      0.961860000000     0.284020000000     0.511910000000    -0.08       
C118     C      0.909160000000     0.276460000000     0.509670000000     0.0707081  
C119     C      0.888590000000     0.233630000000     0.496110000000     0.0706334  
C120     C      0.035180000000     0.274300000000     0.505410000000     0.0363041  
C121     C      0.052240000000     0.256510000000     0.511960000000    -0.0798709  
C122     C      0.105220000000     0.264380000000     0.510290000000     0.07052    
C123     C      0.125250000000     0.307220000000     0.497160000000     0.0706965  
C124     C      0.072790000000     0.299920000000     0.497930000000    -0.0805796  
C125     C      0.580210000000     0.285320000000     0.476740000000    -0.0798973  
C126     C      0.527930000000     0.267700000000     0.483910000000     0.0362232  
C127     C      0.514790000000     0.242260000000     0.492210000000    -0.080406   
C128     C      0.552790000000     0.235000000000     0.493070000000     0.0706859  
C129     C      0.617600000000     0.277550000000     0.478630000000     0.0706868  
C130     C      0.487660000000     0.275870000000     0.483700000000     0.0363412  
C131     C      0.501210000000     0.301700000000     0.490190000000    -0.0805016  
C132     C      0.463130000000     0.308930000000     0.490890000000     0.0708058  
C133     C      0.397610000000     0.265650000000     0.479650000000     0.0708168  
C134     C      0.434980000000     0.257860000000     0.477970000000    -0.0799855  
C135     C      0.662710000000     0.170000000000     0.364600000000    -0.0807198  
C136     C      0.686870000000     0.189430000000     0.342680000000     0.0364027  
C137     C      0.719150000000     0.215220000000     0.351940000000    -0.0810509  
C138     C      0.725000000000     0.221290000000     0.382300000000     0.0707808  
C139     C      0.669680000000     0.176780000000     0.394920000000     0.0706969  
C140     C      0.674910000000     0.183460000000     0.310410000000     0.0364121  
C141     C      0.713430000000     0.195800000000     0.288440000000    -0.0806702  
C142     C      0.699750000000     0.192270000000     0.258130000000     0.070638   
C143     C      0.611290000000     0.164080000000     0.270890000000     0.0708179  
C144     C      0.623570000000     0.167040000000     0.301230000000    -0.0810421  
C145     C      0.640370000000     0.744900000000     0.488450000000     0.341623   
C146     C      0.821340000000     0.744120000000     0.499430000000     0.34156    
C147     C      0.686680000000     0.708870000000     0.553650000000     0.341683   
C148     C      0.703400000000     0.709310000000     0.433100000000     0.341454   
C149     C      0.563720000000     0.615780000000     0.153770000000     0.342058   
C150     C      0.562280000000     0.706310000000     0.165270000000     0.342016   
C151     C      0.634710000000     0.675090000000     0.220090000000     0.341673   
C152     C      0.634760000000     0.683510000000     0.099630000000     0.341995   
C153     C      0.375040000000     0.798560000000     0.488100000000     0.342323   
C154     C      0.193160000000     0.797340000000     0.500960000000     0.341912   
C155     C      0.332350000000     0.836190000000     0.553830000000     0.343036   
C156     C      0.312070000000     0.834060000000     0.433970000000     0.342351   
C157     C      0.451330000000     0.837870000000     0.166740000000     0.342521   
C158     C      0.453510000000     0.928720000000     0.153310000000     0.342209   
C159     C      0.374200000000     0.858340000000     0.101160000000     0.343466   
C160     C      0.379600000000     0.869020000000     0.220850000000     0.342703   
C161     C      0.192440000000     0.838530000000     0.819060000000     0.342205   
C162     C      0.371990000000     0.928340000000     0.835310000000     0.342017   
C163     C      0.310090000000     0.858350000000     0.886840000000     0.343929   
C164     C      0.332250000000     0.868900000000     0.768060000000     0.344073   
C165     C      0.637490000000     0.615130000000     0.832860000000     0.341557   
C166     C      0.819710000000     0.706210000000     0.820600000000     0.34172    
C167     C      0.684870000000     0.674050000000     0.766440000000     0.34191    
C168     C      0.702440000000     0.683010000000     0.886850000000     0.341761   
C169     C      0.497740000000     0.488710000000     0.833820000000    -0.0804794  
C170     C      0.483900000000     0.507710000000     0.839750000000     0.0362673  
C171     C      0.431020000000     0.499200000000     0.845020000000    -0.0797554  
C172     C      0.393810000000     0.972580000000     0.843460000000     0.0705507  
C173     C      0.459880000000     0.962360000000     0.833200000000     0.0706789  
C174     C      0.524190000000     0.536120000000     0.839310000000     0.0362521  
C175     C      0.576440000000     0.544750000000     0.846620000000    -0.0799306  
C176     C      0.614060000000     0.571190000000     0.844100000000     0.0706375  
C177     C      0.549560000000     0.581210000000     0.828970000000     0.0705393  
C178     C      0.511270000000     0.554910000000     0.830440000000    -0.0802774  
C179     C      0.940150000000     0.769350000000     0.823080000000    -0.0802693  
C180     C      0.977430000000     0.762680000000     0.814430000000     0.036209   
C181     C      0.959960000000     0.736410000000     0.807220000000    -0.0798788  
C182     C      0.907180000000     0.717660000000     0.809630000000     0.0707037  
C183     C      0.887660000000     0.750260000000     0.824440000000     0.0704755  
C184     C      0.034110000000     0.782750000000     0.814150000000     0.036266   
C185     C      0.051480000000     0.809320000000     0.808740000000    -0.0797219  
C186     C      0.104570000000     0.827870000000     0.810470000000     0.0705635  
C187     C      0.124220000000     0.794520000000     0.821140000000     0.070749   
C188     C      0.071640000000     0.775640000000     0.820370000000    -0.0805521  
C189     C      0.305540000000     0.852500000000     0.031190000000    -0.0795493  
C190     C      0.334840000000     0.847040000000     0.010610000000     0.0365371  
C191     C      0.374150000000     0.842910000000     0.022120000000    -0.080416   
C192     C      0.386020000000     0.846320000000     0.052530000000     0.0716436  
C193     C      0.317010000000     0.854570000000     0.061750000000     0.0711338  
C194     C      0.326500000000     0.847110000000     0.977490000000     0.036597   
C195     C      0.279090000000     0.843100000000     0.965920000000    -0.0803821  
C196     C      0.274150000000     0.846510000000     0.935480000000     0.0715596  
C197     C      0.359580000000     0.854680000000     0.926410000000     0.0712289  
C198     C      0.366760000000     0.852580000000     0.956980000000    -0.0796304  
C199     C      0.342770000000     0.839860000000     0.698160000000    -0.0795871  
C200     C      0.354540000000     0.860120000000     0.677550000000     0.0365782  
C201     C      0.363550000000     0.884130000000     0.689010000000    -0.0803406  
C202     C      0.356790000000     0.886790000000     0.719420000000     0.0715828  
C203     C      0.338680000000     0.843630000000     0.728690000000     0.0712274  
C204     C      0.354570000000     0.855810000000     0.644450000000     0.0364922  
C205     C      0.361590000000     0.835660000000     0.633050000000    -0.0803533  
C206     C      0.354830000000     0.829720000000     0.602620000000     0.0715891  
C207     C      0.340690000000     0.865080000000     0.593210000000     0.0710186  
C208     C      0.344810000000     0.870850000000     0.623770000000    -0.0794223  
C209     C      0.353030000000     0.873540000000     0.365600000000    -0.0806326  
C210     C      0.328540000000     0.854200000000     0.343610000000     0.0363881  
C211     C      0.296070000000     0.828400000000     0.352820000000    -0.0810294  
C212     C      0.290270000000     0.822250000000     0.383160000000     0.0708516  
C213     C      0.346180000000     0.866670000000     0.395900000000     0.0707394  
C214     C      0.340170000000     0.860250000000     0.311320000000     0.0364097  
C215     C      0.301550000000     0.847780000000     0.289420000000    -0.0806231  
C216     C      0.314950000000     0.851430000000     0.259080000000     0.0707029  
C217     C      0.403320000000     0.880060000000     0.271620000000     0.0708787  
C218     C      0.391330000000     0.876950000000     0.302000000000    -0.0810151  
C219     C      0.535990000000     0.499260000000     0.141530000000    -0.079937   
C220     C      0.501140000000     0.508160000000     0.148150000000     0.0363977  
C221     C      0.450040000000     0.489570000000     0.155910000000    -0.0806672  
C222     C      0.434890000000     0.963170000000     0.156900000000     0.0708352  
C223     C      0.519740000000     0.972620000000     0.143420000000     0.0704639  
C224     C      0.518020000000     0.536590000000     0.148090000000     0.0362849  
C225     C      0.569070000000     0.555340000000     0.155800000000    -0.0803668  
C226     C      0.583700000000     0.581700000000     0.157000000000     0.0706056  
C227     C      0.498540000000     0.571830000000     0.143640000000     0.0708063  
C228     C      0.482860000000     0.545300000000     0.141500000000    -0.0800548  
C229     C      0.565960000000     0.768980000000     0.161890000000    -0.0804408  
C230     C      0.515270000000     0.762100000000     0.170490000000     0.0362784  
C231     C      0.480720000000     0.735810000000     0.177760000000    -0.079955   
C232     C      0.496740000000     0.717270000000     0.175650000000     0.0707387  
C233     C      0.580990000000     0.750120000000     0.160810000000     0.0707216  
C234     C      0.498340000000     0.782050000000     0.170890000000     0.0363213  
C235     C      0.533820000000     0.808560000000     0.176530000000    -0.0800039  
C236     C      0.517690000000     0.827080000000     0.174960000000     0.0709293  
C237     C      0.431610000000     0.793810000000     0.164040000000     0.0708213  
C238     C      0.446620000000     0.774930000000     0.164630000000    -0.0804929  
C239     C      0.623600000000     0.686100000000     0.018520000000    -0.0810875  
C240     C      0.674990000000     0.695570000000     0.009340000000     0.0364251  
C241     C      0.713550000000     0.702700000000     0.031310000000    -0.0807944  
C242     C      0.699860000000     0.699310000000     0.061610000000     0.07073    
C243     C      0.611320000000     0.682830000000     0.048850000000     0.0708744  
C244     C      0.686900000000     0.695500000000     0.977100000000     0.0364176  
C245     C      0.719160000000     0.685870000000     0.967950000000    -0.0810793  
C246     C      0.724730000000     0.682460000000     0.937630000000     0.0708011  
C247     C      0.669270000000     0.699080000000     0.924820000000     0.0707095  
C248     C      0.662570000000     0.702620000000     0.955100000000    -0.0807631  
C249     C      0.679940000000     0.665870000000     0.685330000000    -0.0810399  
C250     C      0.661390000000     0.682310000000     0.676110000000     0.0364496  
C251     C      0.647290000000     0.694610000000     0.698040000000    -0.0808414  
C252     C      0.653830000000     0.691070000000     0.728350000000     0.0707439  
C253     C      0.686240000000     0.662910000000     0.715680000000     0.0708209  
C254     C      0.661810000000     0.688450000000     0.643870000000     0.0363787  
C255     C      0.681340000000     0.714310000000     0.634780000000    -0.0810743  
C256     C      0.688190000000     0.720570000000     0.604480000000     0.0708398  
C257     C      0.654540000000     0.676090000000     0.591560000000     0.0705724  
C258     C      0.647430000000     0.669130000000     0.621830000000    -0.0806925  
C259     C      0.940960000000     0.740660000000     0.497400000000    -0.0803141  
C260     C      0.978680000000     0.766160000000     0.505290000000     0.0362707  
C261     C      0.961860000000     0.784020000000     0.511910000000    -0.0799726  
C262     C      0.909160000000     0.776460000000     0.509670000000     0.0706768  
C263     C      0.888590000000     0.733620000000     0.496110000000     0.0705318  
C264     C      0.035180000000     0.774300000000     0.505410000000     0.0362939  
C265     C      0.052250000000     0.756510000000     0.511960000000    -0.0798704  
C266     C      0.105220000000     0.764380000000     0.510290000000     0.0705374  
C267     C      0.125250000000     0.807220000000     0.497160000000     0.0707009  
C268     C      0.072790000000     0.799920000000     0.497930000000    -0.0805708  
C269     C      0.580210000000     0.785320000000     0.476740000000    -0.0799075  
C270     C      0.527930000000     0.767700000000     0.483910000000     0.0362486  
C271     C      0.514790000000     0.742270000000     0.492210000000    -0.0803621  
C272     C      0.552790000000     0.735000000000     0.493070000000     0.0706214  
C273     C      0.617600000000     0.777550000000     0.478630000000     0.0706936  
C274     C      0.487660000000     0.775870000000     0.483700000000     0.0363281  
C275     C      0.501210000000     0.801700000000     0.490190000000    -0.080469   
C276     C      0.463130000000     0.808930000000     0.490890000000     0.0707901  
C277     C      0.397610000000     0.765650000000     0.479650000000     0.0708152  
C278     C      0.434980000000     0.757860000000     0.477970000000    -0.0799785  
C279     C      0.662710000000     0.670000000000     0.364600000000    -0.0807304  
C280     C      0.686870000000     0.689420000000     0.342680000000     0.036395   
C281     C      0.719150000000     0.715210000000     0.351940000000    -0.0809682  
C282     C      0.725000000000     0.721290000000     0.382300000000     0.0707364  
C283     C      0.669680000000     0.676780000000     0.394920000000     0.0707018  
C284     C      0.674910000000     0.683460000000     0.310410000000     0.0364129  
C285     C      0.713430000000     0.695800000000     0.288440000000    -0.0806676  
C286     C      0.699750000000     0.692270000000     0.258130000000     0.0706349  
C287     C      0.611290000000     0.664080000000     0.270890000000     0.0708127  
C288     C      0.623570000000     0.667040000000     0.301230000000    -0.0810394  
Cd1      Cd     0.712860000000     0.226610000000     0.493500000000     0.516598   
Cd2      Cd     0.599520000000     0.170300000000     0.159810000000     0.516661   
Cd3      Cd     0.302320000000     0.316490000000     0.494370000000     0.515902   
Cd4      Cd     0.414490000000     0.373900000000     0.160390000000     0.515882   
Cd5      Cd     0.301350000000     0.373700000000     0.827340000000     0.514855   
Cd6      Cd     0.710940000000     0.169640000000     0.826690000000     0.516424   
Cd7      Cd     0.712860000000     0.726610000000     0.493500000000     0.516585   
Cd8      Cd     0.599510000000     0.670300000000     0.159810000000     0.516662   
Cd9      Cd     0.302320000000     0.816490000000     0.494370000000     0.515902   
Cd10     Cd     0.414490000000     0.873900000000     0.160400000000     0.515886   
Cd11     Cd     0.301350000000     0.873700000000     0.827340000000     0.514854   
Cd12     Cd     0.710940000000     0.669650000000     0.826690000000     0.516453   
H1       H      0.418110000000     0.012890000000     0.850390000000     0.0554126  
H2       H      0.353400000000     0.466820000000     0.847300000000     0.0352782  
H3       H      0.472730000000     0.448520000000     0.828280000000     0.0365131  
H4       H      0.537490000000     0.993990000000     0.828840000000     0.0556491  
H5       H      0.588580000000     0.031290000000     0.854350000000     0.0554712  
H6       H      0.653950000000     0.076990000000     0.849670000000     0.0355662  
H7       H      0.537600000000     0.094940000000     0.821810000000     0.036165   
H8       H      0.472050000000     0.049470000000     0.823890000000     0.0556603  
H9       H      0.986660000000     0.230170000000     0.799660000000     0.0554244  
H10      H      0.895420000000     0.197590000000     0.804150000000     0.0355759  
H11      H      0.860440000000     0.256400000000     0.831440000000     0.0361766  
H12      H      0.951200000000     0.289080000000     0.829540000000     0.0556515  
H13      H      0.024470000000     0.315920000000     0.803150000000     0.055464   
H14      H      0.116360000000     0.348170000000     0.806510000000     0.0352767  
H15      H      0.151530000000     0.287940000000     0.826290000000     0.0365181  
H16      H      0.060800000000     0.255670000000     0.825450000000     0.0557128  
H17      H      0.396590000000     0.337450000000     0.007870000000     0.0551557  
H18      H      0.417900000000     0.343800000000     0.060210000000     0.0349365  
H19      H      0.294400000000     0.359470000000     0.076720000000     0.0352367  
H20      H      0.275180000000     0.356280000000     0.023980000000     0.0553733  
H21      H      0.245750000000     0.337690000000     0.980130000000     0.055144   
H22      H      0.237320000000     0.344040000000     0.927730000000     0.0349369  
H23      H      0.392000000000     0.359540000000     0.911500000000     0.0353398  
H24      H      0.404610000000     0.356330000000     0.964230000000     0.0553981  
H25      H      0.375070000000     0.400910000000     0.674750000000     0.0551635  
H26      H      0.362470000000     0.405450000000     0.727060000000     0.0348779  
H27      H      0.328260000000     0.327320000000     0.743670000000     0.0353214  
H28      H      0.334530000000     0.320720000000     0.691000000000     0.0553507  
H29      H      0.371560000000     0.324090000000     0.647370000000     0.055151   
H30      H      0.358950000000     0.313430000000     0.595020000000     0.0349683  
H31      H      0.331880000000     0.376730000000     0.578170000000     0.0352791  
H32      H      0.338180000000     0.386410000000     0.630880000000     0.0553324  
H33      H      0.276870000000     0.312770000000     0.336690000000     0.0566185  
H34      H      0.265610000000     0.301890000000     0.389160000000     0.0364436  
H35      H      0.366440000000     0.382040000000     0.412260000000     0.0357525  
H36      H      0.378000000000     0.393800000000     0.359440000000     0.0562098  
H37      H      0.261340000000     0.334950000000     0.295670000000     0.0562022  
H38      H      0.284310000000     0.341100000000     0.242790000000     0.0357342  
H39      H      0.443730000000     0.392740000000     0.265530000000     0.0364179  
H40      H      0.422540000000     0.386760000000     0.318060000000     0.056629   
H41      H      0.421780000000     0.995240000000     0.161970000000     0.0558976  
H42      H      0.394970000000     0.449630000000     0.163210000000     0.0365015  
H43      H      0.547820000000     0.466520000000     0.138410000000     0.0352997  
H44      H      0.575640000000     0.012670000000     0.134810000000     0.0554842  
H45      H      0.597580000000     0.049790000000     0.161700000000     0.0557608  
H46      H      0.623520000000     0.095410000000     0.163320000000     0.0361732  
H47      H      0.470100000000     0.077700000000     0.138680000000     0.0356547  
H48      H      0.443320000000     0.031810000000     0.134670000000     0.0556212  
H49      H      0.441490000000     0.229440000000     0.185220000000     0.0555047  
H50      H      0.468830000000     0.197190000000     0.181240000000     0.0355696  
H51      H      0.620570000000     0.256440000000     0.153900000000     0.0361214  
H52      H      0.593960000000     0.288730000000     0.155310000000     0.0557138  
H53      H      0.573940000000     0.315140000000     0.182220000000     0.0555703  
H54      H      0.546360000000     0.347350000000     0.179130000000     0.0356037  
H55      H      0.391240000000     0.287310000000     0.158890000000     0.0360801  
H56      H      0.417750000000     0.254970000000     0.159440000000     0.055691   
H57      H      0.753900000000     0.210380000000     0.025140000000     0.0562438  
H58      H      0.730460000000     0.204520000000     0.077980000000     0.0357124  
H59      H      0.570740000000     0.174810000000     0.054830000000     0.0364941  
H60      H      0.592480000000     0.180080000000     0.002360000000     0.0567541  
H61      H      0.738260000000     0.179850000000     0.984120000000     0.0567641  
H62      H      0.749140000000     0.174320000000     0.931660000000     0.0365199  
H63      H      0.649080000000     0.204290000000     0.908440000000     0.0357358  
H64      H      0.637720000000     0.210420000000     0.961250000000     0.0562807  
H65      H      0.632230000000     0.207270000000     0.691830000000     0.056296   
H66      H      0.643550000000     0.201280000000     0.744690000000     0.0357425  
H67      H      0.701970000000     0.150470000000     0.721710000000     0.0364901  
H68      H      0.691830000000     0.156200000000     0.669200000000     0.0567092  
H69      H      0.693510000000     0.229900000000     0.651000000000     0.05674    
H70      H      0.704620000000     0.240980000000     0.598570000000     0.0365292  
H71      H      0.643940000000     0.160750000000     0.575140000000     0.0357273  
H72      H      0.631650000000     0.148830000000     0.627930000000     0.056268   
H73      H      0.989020000000     0.303790000000     0.518860000000     0.0556038  
H74      H      0.897870000000     0.290880000000     0.514680000000     0.0356557  
H75      H      0.860970000000     0.213710000000     0.489680000000     0.0362012  
H76      H      0.951590000000     0.226200000000     0.491460000000     0.0557419  
H77      H      0.025080000000     0.236620000000     0.518470000000     0.0555756  
H78      H      0.116830000000     0.250070000000     0.515260000000     0.035284   
H79      H      0.152660000000     0.327260000000     0.491070000000     0.0365506  
H80      H      0.062050000000     0.314320000000     0.491920000000     0.0558442  
H81      H      0.475540000000     0.227990000000     0.498710000000     0.0556821  
H82      H      0.540620000000     0.215130000000     0.499750000000     0.0361639  
H83      H      0.657520000000     0.291770000000     0.473110000000     0.0355475  
H84      H      0.592510000000     0.305030000000     0.469530000000     0.0554946  
H85      H      0.540850000000     0.316330000000     0.495470000000     0.0556461  
H86      H      0.475610000000     0.329110000000     0.496220000000     0.0361178  
H87      H      0.357360000000     0.251110000000     0.475380000000     0.0356131  
H88      H      0.422320000000     0.237810000000     0.472100000000     0.0555683  
H89      H      0.738100000000     0.230890000000     0.335830000000     0.0567515  
H90      H      0.749450000000     0.241650000000     0.388370000000     0.0365389  
H91      H      0.649660000000     0.161350000000     0.411230000000     0.0357391  
H92      H      0.637850000000     0.149750000000     0.358360000000     0.0562805  
H93      H      0.753750000000     0.208450000000     0.294610000000     0.0562785  
H94      H      0.730320000000     0.202480000000     0.241770000000     0.0357246  
H95      H      0.570750000000     0.151630000000     0.264900000000     0.0365227  
H96      H      0.592470000000     0.157350000000     0.317380000000     0.0567307  
H97      H      0.418110000000     0.512890000000     0.850390000000     0.0554848  
H98      H      0.353400000000     0.966820000000     0.847300000000     0.0353026  
H99      H      0.472730000000     0.948520000000     0.828280000000     0.0365277  
H100     H      0.537490000000     0.493990000000     0.828840000000     0.0556586  
H101     H      0.588580000000     0.531290000000     0.854350000000     0.0554814  
H102     H      0.653950000000     0.576990000000     0.849680000000     0.0355693  
H103     H      0.537600000000     0.594940000000     0.821810000000     0.0361675  
H104     H      0.472050000000     0.549470000000     0.823890000000     0.0556849  
H105     H      0.986660000000     0.730170000000     0.799660000000     0.0554373  
H106     H      0.895410000000     0.697590000000     0.804150000000     0.035556   
H107     H      0.860440000000     0.756400000000     0.831440000000     0.0361917  
H108     H      0.951200000000     0.789080000000     0.829540000000     0.0556959  
H109     H      0.024470000000     0.815920000000     0.803150000000     0.0554696  
H110     H      0.116360000000     0.848170000000     0.806510000000     0.0352659  
H111     H      0.151530000000     0.787940000000     0.826290000000     0.0365232  
H112     H      0.060800000000     0.755670000000     0.825450000000     0.0557107  
H113     H      0.396590000000     0.837450000000     0.007870000000     0.0551564  
H114     H      0.417900000000     0.843800000000     0.060210000000     0.0349387  
H115     H      0.294400000000     0.859470000000     0.076720000000     0.0352394  
H116     H      0.275180000000     0.856280000000     0.023980000000     0.0553734  
H117     H      0.245750000000     0.837700000000     0.980130000000     0.0551445  
H118     H      0.237320000000     0.844040000000     0.927730000000     0.0349349  
H119     H      0.392000000000     0.859540000000     0.911500000000     0.0353481  
H120     H      0.404610000000     0.856330000000     0.964230000000     0.0554093  
H121     H      0.375070000000     0.900910000000     0.674750000000     0.0551271  
H122     H      0.362470000000     0.905450000000     0.727060000000     0.0348859  
H123     H      0.328270000000     0.827320000000     0.743670000000     0.0353235  
H124     H      0.334520000000     0.820710000000     0.691000000000     0.0553599  
H125     H      0.371570000000     0.824090000000     0.647370000000     0.0551337  
H126     H      0.358960000000     0.813430000000     0.595020000000     0.0349756  
H127     H      0.331880000000     0.876730000000     0.578170000000     0.0352867  
H128     H      0.338170000000     0.886410000000     0.630880000000     0.0553189  
H129     H      0.276870000000     0.812770000000     0.336690000000     0.0566581  
H130     H      0.265610000000     0.801890000000     0.389160000000     0.0364372  
H131     H      0.366440000000     0.882040000000     0.412260000000     0.0357553  
H132     H      0.378000000000     0.893800000000     0.359440000000     0.0562146  
H133     H      0.261340000000     0.834950000000     0.295670000000     0.0562162  
H134     H      0.284310000000     0.841100000000     0.242790000000     0.0357295  
H135     H      0.443740000000     0.892740000000     0.265530000000     0.0364207  
H136     H      0.422540000000     0.886750000000     0.318060000000     0.056641   
H137     H      0.421780000000     0.495240000000     0.161970000000     0.0558817  
H138     H      0.394970000000     0.949640000000     0.163210000000     0.0364976  
H139     H      0.547820000000     0.966520000000     0.138410000000     0.0353344  
H140     H      0.575640000000     0.512670000000     0.134810000000     0.0555664  
H141     H      0.597580000000     0.549790000000     0.161700000000     0.0557595  
H142     H      0.623520000000     0.595410000000     0.163320000000     0.0361782  
H143     H      0.470100000000     0.577700000000     0.138680000000     0.0356609  
H144     H      0.443320000000     0.531810000000     0.134670000000     0.0556247  
H145     H      0.441490000000     0.729440000000     0.185220000000     0.0555048  
H146     H      0.468840000000     0.697190000000     0.181240000000     0.0355742  
H147     H      0.620570000000     0.756430000000     0.153900000000     0.0361606  
H148     H      0.593960000000     0.788730000000     0.155310000000     0.0557095  
H149     H      0.573940000000     0.815140000000     0.182220000000     0.0555694  
H150     H      0.546360000000     0.847350000000     0.179130000000     0.0356114  
H151     H      0.391250000000     0.787310000000     0.158890000000     0.0361032  
H152     H      0.417750000000     0.754960000000     0.159440000000     0.0556444  
H153     H      0.753890000000     0.710380000000     0.025140000000     0.0562995  
H154     H      0.730460000000     0.704520000000     0.077980000000     0.035705   
H155     H      0.570740000000     0.674810000000     0.054830000000     0.0364935  
H156     H      0.592480000000     0.680080000000     0.002360000000     0.0567578  
H157     H      0.738260000000     0.679850000000     0.984120000000     0.0567652  
H158     H      0.749140000000     0.674320000000     0.931660000000     0.0365207  
H159     H      0.649080000000     0.704290000000     0.908440000000     0.0357366  
H160     H      0.637720000000     0.710420000000     0.961250000000     0.0562797  
H161     H      0.632230000000     0.707270000000     0.691830000000     0.0563211  
H162     H      0.643550000000     0.701280000000     0.744690000000     0.0357404  
H163     H      0.701980000000     0.650470000000     0.721710000000     0.0364929  
H164     H      0.691830000000     0.656200000000     0.669200000000     0.0567272  
H165     H      0.693520000000     0.729900000000     0.651000000000     0.0567539  
H166     H      0.704630000000     0.740980000000     0.598570000000     0.0365112  
H167     H      0.643940000000     0.660750000000     0.575140000000     0.035756   
H168     H      0.631650000000     0.648830000000     0.627930000000     0.0562608  
H169     H      0.989020000000     0.803790000000     0.518860000000     0.0555995  
H170     H      0.897870000000     0.790880000000     0.514680000000     0.0356639  
H171     H      0.860970000000     0.713710000000     0.489680000000     0.036225   
H172     H      0.951590000000     0.726200000000     0.491460000000     0.0557345  
H173     H      0.025080000000     0.736620000000     0.518470000000     0.0555737  
H174     H      0.116820000000     0.750070000000     0.515260000000     0.0352705  
H175     H      0.152660000000     0.827250000000     0.491070000000     0.0365463  
H176     H      0.062050000000     0.814320000000     0.491920000000     0.0558463  
H177     H      0.475540000000     0.727990000000     0.498710000000     0.0556632  
H178     H      0.540610000000     0.715130000000     0.499750000000     0.0361835  
H179     H      0.657520000000     0.791770000000     0.473110000000     0.0355508  
H180     H      0.592510000000     0.805030000000     0.469530000000     0.0555013  
H181     H      0.540850000000     0.816340000000     0.495470000000     0.0556306  
H182     H      0.475610000000     0.829110000000     0.496220000000     0.0361215  
H183     H      0.357350000000     0.751110000000     0.475380000000     0.0356238  
H184     H      0.422320000000     0.737810000000     0.472100000000     0.0555682  
H185     H      0.738100000000     0.730890000000     0.335830000000     0.0567102  
H186     H      0.749450000000     0.741650000000     0.388370000000     0.0365496  
H187     H      0.649660000000     0.661350000000     0.411230000000     0.0357408  
H188     H      0.637860000000     0.649750000000     0.358360000000     0.0562886  
H189     H      0.753750000000     0.708450000000     0.294610000000     0.0562803  
H190     H      0.730320000000     0.702480000000     0.241770000000     0.0357281  
H191     H      0.570750000000     0.651630000000     0.264900000000     0.0365256  
H192     H      0.592470000000     0.657350000000     0.317380000000     0.0567335  
N1       N      0.408240000000     0.454360000000     0.837520000000    -0.177426   
N2       N      0.600630000000     0.089240000000     0.835340000000    -0.177519   
N3       N      0.871390000000     0.224580000000     0.818190000000    -0.177508   
N4       N      0.140560000000     0.320470000000     0.816700000000    -0.177511   
N5       N      0.358370000000     0.352630000000     0.072050000000    -0.178453   
N6       N      0.314420000000     0.352750000000     0.916020000000    -0.1785     
N7       N      0.343450000000     0.366530000000     0.738950000000    -0.178528   
N8       N      0.343470000000     0.343990000000     0.583000000000    -0.178342   
N9       N      0.315990000000     0.341120000000     0.404500000000    -0.177822   
N10      N      0.365690000000     0.366950000000     0.250360000000    -0.177846   
N11      N      0.469550000000     0.454770000000     0.151080000000    -0.177873   
N12      N      0.548540000000     0.089840000000     0.151410000000    -0.177728   
N13      N      0.546530000000     0.224440000000     0.167290000000    -0.177704   
N14      N      0.466990000000     0.319710000000     0.168710000000    -0.177618   
N15      N      0.648920000000     0.188800000000     0.070190000000    -0.177736   
N16      N      0.699040000000     0.188430000000     0.916270000000    -0.17768    
N17      N      0.674470000000     0.175890000000     0.736980000000    -0.177723   
N18      N      0.676010000000     0.201710000000     0.583070000000    -0.177621   
N19      N      0.872900000000     0.251460000000     0.501780000000    -0.177626   
N20      N      0.141340000000     0.289550000000     0.502930000000    -0.177733   
N21      N      0.603860000000     0.252560000000     0.486670000000    -0.17763    
N22      N      0.411670000000     0.290990000000     0.486100000000    -0.177539   
N23      N      0.699570000000     0.202330000000     0.403590000000    -0.17757    
N24      N      0.648850000000     0.177040000000     0.249550000000    -0.177689   
N25      N      0.408240000000     0.954360000000     0.837520000000    -0.177405   
N26      N      0.600630000000     0.589240000000     0.835340000000    -0.177519   
N27      N      0.871390000000     0.724570000000     0.818190000000    -0.17757    
N28      N      0.140550000000     0.820470000000     0.816700000000    -0.177486   
N29      N      0.358370000000     0.852630000000     0.072050000000    -0.17845    
N30      N      0.314420000000     0.852750000000     0.916020000000    -0.178507   
N31      N      0.343450000000     0.866530000000     0.738950000000    -0.17854    
N32      N      0.343470000000     0.843990000000     0.583000000000    -0.178324   
N33      N      0.315990000000     0.841120000000     0.404500000000    -0.177829   
N34      N      0.365690000000     0.866950000000     0.250360000000    -0.177867   
N35      N      0.469550000000     0.954770000000     0.151080000000    -0.177832   
N36      N      0.548540000000     0.589840000000     0.151410000000    -0.177723   
N37      N      0.546530000000     0.724430000000     0.167290000000    -0.177735   
N38      N      0.466990000000     0.819720000000     0.168710000000    -0.177674   
N39      N      0.648920000000     0.688800000000     0.070190000000    -0.177743   
N40      N      0.699040000000     0.688430000000     0.916270000000    -0.177685   
N41      N      0.674470000000     0.675890000000     0.736980000000    -0.177729   
N42      N      0.676010000000     0.701720000000     0.583070000000    -0.17763    
N43      N      0.872900000000     0.751460000000     0.501780000000    -0.177557   
N44      N      0.141330000000     0.789550000000     0.502930000000    -0.177699   
N45      N      0.603870000000     0.752560000000     0.486670000000    -0.177655   
N46      N      0.411670000000     0.790990000000     0.486100000000    -0.177537   
N47      N      0.699570000000     0.702330000000     0.403590000000    -0.177561   
N48      N      0.648850000000     0.677040000000     0.249550000000    -0.177667   
O1       O      0.805190000000     0.260430000000     0.501180000000    -0.242056   
O2       O      0.681510000000     0.192610000000     0.454020000000    -0.242418   
O3       O      0.689090000000     0.260970000000     0.486300000000    -0.241843   
O4       O      0.709730000000     0.232760000000     0.546110000000    -0.251917   
O5       O      0.675270000000     0.192290000000     0.532590000000    -0.242179   
O6       O      0.627040000000     0.221130000000     0.492640000000    -0.251558   
O7       O      0.787000000000     0.220430000000     0.495080000000    -0.251569   
O8       O      0.728410000000     0.233130000000     0.440880000000    -0.251956   
O9       O      0.530660000000     0.181830000000     0.167470000000    -0.242043   
O10      O      0.667820000000     0.189080000000     0.120640000000    -0.24237    
O11      O      0.531580000000     0.124110000000     0.152110000000    -0.242207   
O12      O      0.587220000000     0.162390000000     0.212430000000    -0.252087   
O13      O      0.667740000000     0.186210000000     0.199090000000    -0.242546   
O14      O      0.611030000000     0.132840000000     0.158060000000    -0.251806   
O15      O      0.609670000000     0.213240000000     0.160820000000    -0.251873   
O16      O      0.587230000000     0.172100000000     0.107240000000    -0.252113   
O17      O      0.210310000000     0.281440000000     0.502800000000    -0.243465   
O18      O      0.334610000000     0.350630000000     0.454920000000    -0.242291   
O19      O      0.326250000000     0.282240000000     0.487580000000    -0.241159   
O20      O      0.320940000000     0.313320000000     0.546060000000    -0.251525   
O21      O      0.330620000000     0.350800000000     0.533410000000    -0.242843   
O22      O      0.388350000000     0.322450000000     0.491110000000    -0.250718   
O23      O      0.226780000000     0.321110000000     0.496640000000    -0.252102   
O24      O      0.286300000000     0.310260000000     0.441710000000    -0.252405   
O25      O      0.484750000000     0.419850000000     0.151420000000    -0.24352    
O26      O      0.346580000000     0.357510000000     0.199970000000    -0.242556   
O27      O      0.483440000000     0.362410000000     0.167100000000    -0.241008   
O28      O      0.419530000000     0.363650000000     0.108880000000    -0.251756   
O29      O      0.345740000000     0.359820000000     0.121540000000    -0.243052   
O30      O      0.403570000000     0.330930000000     0.163880000000    -0.250571   
O31      O      0.406120000000     0.412070000000     0.157920000000    -0.252234   
O32      O      0.426930000000     0.382180000000     0.213020000000    -0.252602   
O33      O      0.323060000000     0.419840000000     0.835380000000    -0.242393   
O34      O      0.328370000000     0.352920000000     0.788380000000    -0.242897   
O35      O      0.209720000000     0.363120000000     0.818840000000    -0.242507   
O36      O      0.275150000000     0.363430000000     0.878860000000    -0.252242   
O37      O      0.341830000000     0.359940000000     0.866630000000    -0.242901   
O38      O      0.225910000000     0.331390000000     0.822380000000    -0.250668   
O39      O      0.385910000000     0.411390000000     0.832290000000    -0.250495   
O40      O      0.322720000000     0.386690000000     0.775830000000    -0.25231    
O41      O      0.803080000000     0.181750000000     0.818610000000    -0.241954   
O42      O      0.680400000000     0.188540000000     0.865850000000    -0.242354   
O43      O      0.686150000000     0.123330000000     0.834930000000    -0.242052   
O44      O      0.707300000000     0.161480000000     0.774140000000    -0.252125   
O45      O      0.673950000000     0.185200000000     0.787390000000    -0.24237    
O46      O      0.624570000000     0.132280000000     0.828090000000    -0.251421   
O47      O      0.785750000000     0.212860000000     0.825230000000    -0.251397   
O48      O      0.727140000000     0.171540000000     0.879240000000    -0.252063   
O49      O      0.805190000000     0.760430000000     0.501180000000    -0.242181   
O50      O      0.681510000000     0.692610000000     0.454020000000    -0.242418   
O51      O      0.689090000000     0.760970000000     0.486300000000    -0.241866   
O52      O      0.709720000000     0.732760000000     0.546110000000    -0.251916   
O53      O      0.675270000000     0.692290000000     0.532590000000    -0.2422     
O54      O      0.627030000000     0.721130000000     0.492640000000    -0.251579   
O55      O      0.787000000000     0.720430000000     0.495080000000    -0.251482   
O56      O      0.728410000000     0.733130000000     0.440880000000    -0.251954   
O57      O      0.530660000000     0.681820000000     0.167470000000    -0.241958   
O58      O      0.667820000000     0.689080000000     0.120640000000    -0.24236    
O59      O      0.531580000000     0.624110000000     0.152110000000    -0.242208   
O60      O      0.587210000000     0.662390000000     0.212430000000    -0.252008   
O61      O      0.667740000000     0.686210000000     0.199090000000    -0.242508   
O62      O      0.611030000000     0.632840000000     0.158060000000    -0.251794   
O63      O      0.609670000000     0.713240000000     0.160820000000    -0.251864   
O64      O      0.587230000000     0.672100000000     0.107240000000    -0.252117   
O65      O      0.210310000000     0.781440000000     0.502800000000    -0.243442   
O66      O      0.334610000000     0.850630000000     0.454920000000    -0.242291   
O67      O      0.326250000000     0.782240000000     0.487580000000    -0.241158   
O68      O      0.320940000000     0.813320000000     0.546060000000    -0.251655   
O69      O      0.330620000000     0.850800000000     0.533410000000    -0.242762   
O70      O      0.388350000000     0.822450000000     0.491110000000    -0.250717   
O71      O      0.226780000000     0.821110000000     0.496640000000    -0.252083   
O72      O      0.286300000000     0.810260000000     0.441710000000    -0.252405   
O73      O      0.484750000000     0.919850000000     0.151420000000    -0.243508   
O74      O      0.346580000000     0.857510000000     0.199970000000    -0.242597   
O75      O      0.483440000000     0.862410000000     0.167100000000    -0.241044   
O76      O      0.419530000000     0.863650000000     0.108880000000    -0.251725   
O77      O      0.345740000000     0.859820000000     0.121540000000    -0.243032   
O78      O      0.403570000000     0.830930000000     0.163880000000    -0.250605   
O79      O      0.406120000000     0.912070000000     0.157920000000    -0.252226   
O80      O      0.426930000000     0.882180000000     0.213020000000    -0.252571   
O81      O      0.323060000000     0.919840000000     0.835380000000    -0.24239    
O82      O      0.328370000000     0.852920000000     0.788380000000    -0.242974   
O83      O      0.209720000000     0.863120000000     0.818840000000    -0.242491   
O84      O      0.275150000000     0.863430000000     0.878860000000    -0.25224    
O85      O      0.341830000000     0.859940000000     0.866630000000    -0.242899   
O86      O      0.225910000000     0.831390000000     0.822380000000    -0.250654   
O87      O      0.385910000000     0.911390000000     0.832290000000    -0.250492   
O88      O      0.322720000000     0.886690000000     0.775830000000    -0.252174   
O89      O      0.803080000000     0.681750000000     0.818610000000    -0.241986   
O90      O      0.680400000000     0.688540000000     0.865850000000    -0.242411   
O91      O      0.686150000000     0.623330000000     0.834930000000    -0.242017   
O92      O      0.707300000000     0.661480000000     0.774140000000    -0.252114   
O93      O      0.673950000000     0.685200000000     0.787390000000    -0.24239    
O94      O      0.624570000000     0.632280000000     0.828090000000    -0.25141    
O95      O      0.785750000000     0.712850000000     0.825230000000    -0.251579   
O96      O      0.727140000000     0.671540000000     0.879240000000    -0.251994   


