data_structure

_audit_creation_method RASPA-1.0
_audit_creation_date 2023-5-23
_audit_author_name 'Poobodin Mano'

_cell_length_a    32.0307
_cell_length_b    29.6764
_cell_length_c    71.9637
_cell_angle_alpha 90.0001
_cell_angle_beta  89.9086
_cell_angle_gamma 89.9678
_cell_volume      68405.4

_symmetry_cell_setting          triclinic
_symmetry_space_group_name_Hall 'P 1'
_symmetry_space_group_name_H-M  'P 1'
_symmetry_Int_Tables_number     1

_symmetry_equiv_pos_as_xyz 'x,y,z'

loop_
_atom_site_label
_atom_site_type_symbol
_atom_site_fract_x
_atom_site_fract_y
_atom_site_fract_z
_atom_site_charge
C1       C      0.944010000000     0.456770000000     0.305670000000     0.345848   
C2       C      0.059170000000     0.362830000000     0.821440000000     0.34776    
C3       C      0.060500000000     0.503200000000     0.842380000000     0.346612   
C4       C      0.960160000000     0.398590000000     0.867280000000     0.344845   
C5       C      0.945170000000     0.460440000000     0.044050000000     0.338182   
C6       C      0.051630000000     0.371980000000     0.061620000000     0.345083   
C7       C      0.045800000000     0.501770000000     0.092760000000     0.346376   
C8       C      0.943140000000     0.409130000000     0.109170000000     0.347973   
C9       C      0.859400000000     0.572940000000     0.922680000000     0.348262   
C10      C      0.780290000000     0.680140000000     0.896760000000     0.346903   
C11      C      0.926300000000     0.669210000000     0.880190000000     0.345889   
C12      C      0.832320000000     0.576260000000     0.853570000000     0.350142   
C13      C      0.802110000000     0.676150000000     0.152080000000     0.346462   
C14      C      0.866130000000     0.559740000000     0.183060000000     0.350788   
C15      C      0.842530000000     0.545950000000     0.116910000000     0.343451   
C16      C      0.937860000000     0.650940000000     0.135970000000     0.349805   
C17      C      0.878510000000     0.274860000000     0.987870000000     0.348786   
C18      C      0.787440000000     0.179400000000     0.015180000000     0.346953   
C19      C      0.933300000000     0.166860000000     0.029660000000     0.347803   
C20      C      0.857440000000     0.279700000000     0.055700000000     0.351056   
C21      C      0.944180000000     0.209670000000     0.274690000000     0.344632   
C22      C      0.868130000000     0.309460000000     0.806580000000     0.356091   
C23      C      0.891710000000     0.330480000000     0.238280000000     0.340706   
C24      C      0.802120000000     0.223020000000     0.258260000000     0.349834   
C25      C      0.773420000000     0.393920000000     0.930360000000     0.344616   
C26      C      0.663530000000     0.491290000000     0.946120000000     0.350055   
C27      C      0.654950000000     0.348260000000     0.965330000000     0.344948   
C28      C      0.754460000000     0.438310000000     0.994940000000     0.347754   
C29      C      0.633950000000     0.471320000000     0.191040000000     0.346645   
C30      C      0.756820000000     0.390180000000     0.173780000000     0.341741   
C31      C      0.744520000000     0.449410000000     0.234440000000     0.346156   
C32      C      0.650760000000     0.333460000000     0.214270000000     0.347862   
C33      C      0.364730000000     0.792170000000     0.922320000000     0.347843   
C34      C      0.441030000000     0.684120000000     0.897460000000     0.347918   
C35      C      0.296340000000     0.689980000000     0.881790000000     0.345365   
C36      C      0.386970000000     0.786320000000     0.853080000000     0.351603   
C37      C      0.348470000000     0.797460000000     0.177100000000     0.348052   
C38      C      0.410100000000     0.674400000000     0.149480000000     0.346811   
C39      C      0.264750000000     0.703630000000     0.137380000000     0.345863   
C40      C      0.367380000000     0.785460000000     0.109250000000     0.353501   
C41      C      0.545780000000     0.014160000000     0.969130000000     0.344533   
C42      C      0.454490000000     0.906960000000     0.988380000000     0.342201   
C43      C      0.435570000000     0.959220000000     0.925470000000     0.34669    
C44      C      0.556530000000     0.880470000000     0.940920000000     0.34296    
C45      C      0.476080000000     0.915440000000     0.234810000000     0.346899   
C46      C      0.573710000000     0.030310000000     0.216500000000     0.347177   
C47      C      0.587990000000     0.892920000000     0.191580000000     0.348      
C48      C      0.466910000000     0.977080000000     0.175450000000     0.34587    
C49      C      0.334070000000     0.069000000000     0.984450000000     0.350892   
C50      C      0.428450000000     0.159900000000     0.013320000000     0.344587   
C51      C      0.275680000000     0.167390000000     0.022640000000     0.344463   
C52      C      0.361910000000     0.071320000000     0.054840000000     0.348933   
C53      C      0.351090000000     0.050050000000     0.801650000000     0.350183   
C54      C      0.278420000000     0.161080000000     0.274750000000     0.346911   
C55      C      0.422020000000     0.150210000000     0.261380000000     0.346144   
C56      C      0.335040000000     0.056950000000     0.231390000000     0.350407   
C57      C      0.155950000000     0.990910000000     0.815220000000     0.344433   
C58      C      0.274330000000     0.901950000000     0.298930000000     0.345655   
C59      C      0.251880000000     0.955730000000     0.862320000000     0.346927   
C60      C      0.162000000000     0.848790000000     0.836660000000     0.346691   
C61      C      0.174340000000     0.826500000000     0.089670000000     0.346951   
C62      C      0.274870000000     0.937000000000     0.108210000000     0.344865   
C63      C      0.278330000000     0.881280000000     0.046500000000     0.342868   
C64      C      0.161390000000     0.965520000000     0.067710000000     0.347523   
C65      C      0.301850000000     0.015200000000     0.145370000000    -0.0817049  
C66      C      0.315220000000     0.985500000000     0.159240000000     0.0362641  
C67      C      0.319230000000     0.939710000000     0.154940000000    -0.0780002  
C68      C      0.308020000000     0.924250000000     0.137290000000     0.0672331  
C69      C      0.290360000000     0.998550000000     0.128010000000     0.0696346  
C70      C      0.322780000000     0.002260000000     0.178320000000     0.0382512  
C71      C      0.345090000000     0.042080000000     0.181190000000    -0.0802129  
C72      C      0.349270000000     0.059370000000     0.199080000000     0.0733715  
C73      C      0.309490000000     0.999020000000     0.211460000000     0.0710946  
C74      C      0.305120000000     0.980450000000     0.193700000000    -0.081219   
C75      C      0.297450000000     0.990150000000     0.948870000000    -0.0813575  
C76      C      0.306120000000     0.014590000000     0.932690000000     0.0380277  
C77      C      0.326060000000     0.056270000000     0.934190000000    -0.0819379  
C78      C      0.336060000000     0.073260000000     0.951620000000     0.0749966  
C79      C      0.307320000000     0.008600000000     0.966200000000     0.0736536  
C80      C      0.292150000000     0.998510000000     0.914320000000     0.0352888  
C81      C      0.300700000000     0.954680000000     0.908290000000    -0.0787737  
C82      C      0.287700000000     0.941010000000     0.890630000000     0.0690137  
C83      C      0.256920000000     0.012600000000     0.885270000000     0.067318   
C84      C      0.270110000000     0.027580000000     0.902600000000    -0.0836524  
C85      C      0.409220000000     0.965580000000     0.131890000000    -0.0792785  
C86      C      0.405820000000     0.010660000000     0.126350000000     0.0360873  
C87      C      0.420320000000     0.044230000000     0.138420000000    -0.083677   
C88      C      0.439180000000     0.032400000000     0.155150000000     0.0687397  
C89      C      0.428020000000     0.954930000000     0.148840000000     0.0695589  
C90      C      0.389550000000     0.022980000000     0.107720000000     0.0375957  
C91      C      0.400480000000     0.997920000000     0.091920000000    -0.0809772  
C92      C      0.389490000000     0.013510000000     0.074240000000     0.0732126  
C93      C      0.355550000000     0.076790000000     0.087570000000     0.0733969  
C94      C      0.365670000000     0.062050000000     0.105370000000    -0.0821615  
C95      C      0.386890000000     0.022380000000     0.887710000000    -0.0817332  
C96      C      0.381290000000     0.988410000000     0.874430000000     0.037802   
C97      C      0.389680000000     0.943800000000     0.879470000000    -0.0804196  
C98      C      0.405500000000     0.934240000000     0.897110000000     0.0691661  
C99      C      0.403250000000     0.011710000000     0.905130000000     0.0694529  
C100     C      0.369670000000     0.000100000000     0.855080000000     0.0389209  
C101     C      0.338550000000     0.031960000000     0.851530000000    -0.078519   
C102     C      0.331270000000     0.046370000000     0.833380000000     0.0765268  
C103     C      0.384610000000     0.998200000000     0.822050000000     0.0735192  
C104     C      0.392110000000     0.982310000000     0.840030000000    -0.0804348  
C105     C      0.371640000000     0.824020000000     0.225570000000    -0.079727   
C106     C      0.340140000000     0.855010000000     0.229660000000     0.0378108  
C107     C      0.313810000000     0.869540000000     0.215360000000    -0.0815127  
C108     C      0.317900000000     0.851160000000     0.197570000000     0.0694474  
C109     C      0.375480000000     0.807120000000     0.207550000000     0.0729391  
C110     C      0.331110000000     0.868030000000     0.249070000000     0.0370929  
C111     C      0.322800000000     0.834780000000     0.262340000000    -0.0823356  
C112     C      0.305940000000     0.846970000000     0.279510000000     0.0697273  
C113     C      0.309590000000     0.924330000000     0.271360000000     0.0696229  
C114     C      0.325950000000     0.913260000000     0.253960000000    -0.0801663  
C115     C      0.400990000000     0.902550000000     0.033420000000    -0.0773715  
C116     C      0.411280000000     0.858970000000     0.039400000000     0.0358205  
C117     C      0.436070000000     0.832110000000     0.027770000000    -0.0824598  
C118     C      0.449620000000     0.848570000000     0.010690000000     0.0682239  
C119     C      0.414980000000     0.917950000000     0.016110000000     0.0697167  
C120     C      0.396640000000     0.841080000000     0.057600000000     0.0384611  
C121     C      0.394360000000     0.868520000000     0.073440000000    -0.0792118  
C122     C      0.383730000000     0.849690000000     0.090660000000     0.0774529  
C123     C      0.376410000000     0.777730000000     0.076750000000     0.07588    
C124     C      0.386390000000     0.795430000000     0.059410000000    -0.0809649  
C125     C      0.319750000000     0.857510000000     0.960520000000    -0.0803046  
C126     C      0.343040000000     0.841320000000     0.975590000000     0.0380741  
C127     C      0.376390000000     0.812150000000     0.972110000000    -0.0780075  
C128     C      0.384600000000     0.798060000000     0.953980000000     0.0757748  
C129     C      0.328440000000     0.842170000000     0.942560000000     0.0720902  
C130     C      0.330640000000     0.852430000000     0.994880000000     0.0370546  
C131     C      0.320680000000     0.896660000000     0.999780000000    -0.0803651  
C132     C      0.304890000000     0.905990000000     0.017430000000     0.0687515  
C133     C      0.309620000000     0.828790000000     0.025710000000     0.0691974  
C134     C      0.326060000000     0.818410000000     0.008230000000    -0.0808478  
C135     C      0.446390000000     0.834770000000     0.270760000000    -0.0835495  
C136     C      0.424250000000     0.862260000000     0.283130000000     0.0360285  
C137     C      0.417130000000     0.907280000000     0.778270000000    -0.0790848  
C138     C      0.433260000000     0.924250000000     0.261630000000     0.0700397  
C139     C      0.462410000000     0.852880000000     0.254380000000     0.0683343  
C140     C      0.410780000000     0.844290000000     0.801390000000     0.0378864  
C141     C      0.393480000000     0.801160000000     0.802740000000    -0.0821616  
C142     C      0.385050000000     0.782740000000     0.820160000000     0.0731876  
C143     C      0.409350000000     0.849070000000     0.834990000000     0.0736956  
C144     C      0.418060000000     0.868630000000     0.817740000000    -0.0813257  
C145     C      0.573550000000     0.546200000000     0.160820000000    -0.0808871  
C146     C      0.538190000000     0.554680000000     0.171760000000     0.0359889  
C147     C      0.535770000000     0.534640000000     0.189370000000    -0.0808653  
C148     C      0.568200000000     0.507070000000     0.195670000000     0.070623   
C149     C      0.605280000000     0.518270000000     0.167500000000     0.0708407  
C150     C      0.504380000000     0.584870000000     0.165000000000     0.0360561  
C151     C      0.513940000000     0.625130000000     0.155760000000    -0.0808704  
C152     C      0.481920000000     0.654170000000     0.150250000000     0.0709549  
C153     C      0.431030000000     0.603950000000     0.162240000000     0.0705797  
C154     C      0.462300000000     0.574230000000     0.168030000000    -0.0809377  
C155     C      0.531720000000     0.176790000000     0.251560000000    -0.0801577  
C156     C      0.527410000000     0.217760000000     0.242120000000     0.036637   
C157     C      0.487690000000     0.236880000000     0.240520000000    -0.0817278  
C158     C      0.453130000000     0.214540000000     0.247750000000     0.0722123  
C159     C      0.496150000000     0.154790000000     0.258390000000     0.0715334  
C160     C      0.563640000000     0.241390000000     0.233900000000     0.0364055  
C161     C      0.598550000000     0.252170000000     0.244650000000    -0.0818005  
C162     C      0.628790000000     0.281470000000     0.237520000000     0.0700327  
C163     C      0.592430000000     0.286060000000     0.208890000000     0.0708644  
C164     C      0.561520000000     0.257320000000     0.215620000000    -0.0820912  
C165     C      0.547860000000     0.643390000000     0.904820000000    -0.0818939  
C166     C      0.541040000000     0.608940000000     0.917780000000     0.035216   
C167     C      0.500080000000     0.599340000000     0.923230000000    -0.0817426  
C168     C      0.467010000000     0.624140000000     0.915910000000     0.0712913  
C169     C      0.513970000000     0.668070000000     0.897960000000     0.0699679  
C170     C      0.576080000000     0.582130000000     0.925400000000     0.0355124  
C171     C      0.605600000000     0.562460000000     0.913570000000    -0.081523   
C172     C      0.635460000000     0.532990000000     0.920830000000     0.0718751  
C173     C      0.609340000000     0.544590000000     0.951320000000     0.0712924  
C174     C      0.578680000000     0.573630000000     0.944500000000    -0.0823207  
C175     C      0.552600000000     0.299520000000     0.974860000000    -0.0813154  
C176     C      0.563340000000     0.260270000000     0.984540000000     0.0358332  
C177     C      0.605620000000     0.248640000000     0.985900000000    -0.0802526  
C178     C      0.636100000000     0.277600000000     0.978680000000     0.0700303  
C179     C      0.583710000000     0.327490000000     0.967790000000     0.0710037  
C180     C      0.530310000000     0.232940000000     0.993660000000     0.0356726  
C181     C      0.497370000000     0.254430000000     0.002930000000    -0.0808822  
C182     C      0.464480000000     0.229200000000     0.010150000000     0.0710752  
C183     C      0.496870000000     0.161450000000     0.000230000000     0.0718641  
C184     C      0.530480000000     0.185750000000     0.992840000000    -0.0821572  
C185     C      0.045250000000     0.164290000000     0.289550000000    -0.081407   
C186     C      0.037280000000     0.117840000000     0.289340000000     0.0357847  
C187     C      0.998290000000     0.103010000000     0.783020000000    -0.0808211  
C188     C      0.967950000000     0.134200000000     0.777710000000     0.0706932  
C189     C      0.014130000000     0.194640000000     0.284090000000     0.0700561  
C190     C      0.068780000000     0.084920000000     0.796180000000     0.0351782  
C191     C      0.111230000000     0.089580000000     0.291860000000    -0.078793   
C192     C      0.140090000000     0.057920000000     0.298380000000     0.0693973  
C193     C      0.086060000000     0.017390000000     0.813490000000     0.0706347  
C194     C      0.056450000000     0.048330000000     0.807200000000    -0.0806334  
C195     C      0.652690000000     0.119060000000     0.214810000000    -0.0818231  
C196     C      0.660550000000     0.125940000000     0.233750000000     0.0359806  
C197     C      0.635540000000     0.103440000000     0.246750000000    -0.0838982  
C198     C      0.605260000000     0.072880000000     0.240710000000     0.0688463  
C199     C      0.622280000000     0.088220000000     0.209270000000     0.0704523  
C200     C      0.696840000000     0.153360000000     0.239840000000     0.0363371  
C201     C      0.735230000000     0.149150000000     0.230660000000    -0.0804577  
C202     C      0.769990000000     0.172750000000     0.237030000000     0.0726785  
C203     C      0.729790000000     0.205460000000     0.261220000000     0.0714237  
C204     C      0.694330000000     0.182020000000     0.255280000000    -0.0809652  
C205     C      0.864020000000     0.309540000000     0.857230000000    -0.0803552  
C206     C      0.845920000000     0.351540000000     0.860950000000     0.0392364  
C207     C      0.839480000000     0.381200000000     0.846030000000    -0.0796865  
C208     C      0.848740000000     0.367460000000     0.827870000000     0.0778504  
C209     C      0.872510000000     0.296830000000     0.839000000000     0.0764873  
C210     C      0.830910000000     0.362520000000     0.880030000000     0.0375597  
C211     C      0.813420000000     0.328750000000     0.891240000000    -0.0827115  
C212     C      0.796120000000     0.339590000000     0.908430000000     0.0694181  
C213     C      0.814640000000     0.416280000000     0.904390000000     0.0702291  
C214     C      0.831940000000     0.406670000000     0.886960000000    -0.0792086  
C215     C      0.990670000000     0.071050000000     0.048850000000    -0.0808666  
C216     C      0.032110000000     0.083640000000     0.045470000000     0.0354539  
C217     C      0.039730000000     0.124330000000     0.036180000000    -0.0813163  
C218     C      0.006280000000     0.151600000000     0.030740000000     0.0694906  
C219     C      0.958060000000     0.099020000000     0.043210000000     0.0712474  
C220     C      0.066990000000     0.054180000000     0.051610000000     0.0358522  
C221     C      0.065650000000     0.032800000000     0.068960000000    -0.0815649  
C222     C      0.097780000000     0.003700000000     0.074240000000     0.0708749  
C223     C      0.132890000000     0.016760000000     0.045710000000     0.0709506  
C224     C      0.101400000000     0.046270000000     0.040030000000    -0.0815011  
C225     C      0.675980000000     0.152920000000     0.010650000000    -0.0822571  
C226     C      0.677190000000     0.119350000000     0.996990000000     0.034831   
C227     C      0.716030000000     0.104920000000     0.990360000000    -0.0814104  
C228     C      0.752510000000     0.124470000000     0.997080000000     0.071002   
C229     C      0.713260000000     0.172550000000     0.016820000000     0.0701548  
C230     C      0.638640000000     0.098280000000     0.989680000000     0.0322052  
C231     C      0.608660000000     0.080150000000     0.001690000000    -0.0807804  
C232     C      0.576390000000     0.053630000000     0.994500000000     0.0658302  
C233     C      0.600770000000     0.066190000000     0.963800000000     0.0688022  
C234     C      0.633580000000     0.092400000000     0.970520000000    -0.0828515  
C235     C      0.818590000000     0.359430000000     0.090400000000    -0.0795691  
C236     C      0.835340000000     0.341000000000     0.106730000000     0.038456   
C237     C      0.863750000000     0.305340000000     0.105170000000    -0.0790081  
C238     C      0.872260000000     0.286630000000     0.087830000000     0.0761751  
C239     C      0.827880000000     0.339820000000     0.073220000000     0.0747589  
C240     C      0.819830000000     0.355360000000     0.125270000000     0.037075   
C241     C      0.810010000000     0.400460000000     0.128990000000    -0.0801407  
C242     C      0.790830000000     0.412020000000     0.145790000000     0.0668732  
C243     C      0.792110000000     0.335690000000     0.155510000000     0.069029   
C244     C      0.811650000000     0.323070000000     0.139020000000    -0.0811012  
C245     C      0.646370000000     0.816640000000     0.161100000000    -0.0810176  
C246     C      0.679760000000     0.804240000000     0.172560000000     0.0362629  
C247     C      0.681700000000     0.822380000000     0.190510000000    -0.0811654  
C248     C      0.650740000000     0.852010000000     0.196640000000     0.0710418  
C249     C      0.616000000000     0.846520000000     0.167660000000     0.0711158  
C250     C      0.712170000000     0.772080000000     0.166000000000     0.0363527  
C251     C      0.701210000000     0.733500000000     0.155900000000    -0.0808297  
C252     C      0.731890000000     0.702240000000     0.150890000000     0.0710591  
C253     C      0.784140000000     0.747170000000     0.165040000000     0.0713912  
C254     C      0.754310000000     0.779020000000     0.170290000000    -0.0813715  
C255     C      0.006080000000     0.722750000000     0.108020000000    -0.0821778  
C256     C      0.045200000000     0.714520000000     0.115990000000     0.0345929  
C257     C      0.047570000000     0.684500000000     0.131010000000    -0.0822162  
C258     C      0.011360000000     0.663360000000     0.137570000000     0.0713325  
C259     C      0.970660000000     0.701330000000     0.114970000000     0.0722324  
C260     C      0.082710000000     0.738560000000     0.108900000000     0.0328537  
C261     C      0.087780000000     0.746390000000     0.089810000000    -0.0843103  
C262     C      0.119910000000     0.774240000000     0.083500000000     0.0689118  
C263     C      0.144120000000     0.784220000000     0.114330000000     0.0688807  
C264     C      0.112280000000     0.756560000000     0.121140000000    -0.0801733  
C265     C      0.771250000000     0.434910000000     0.045190000000    -0.0799558  
C266     C      0.797410000000     0.472080000000     0.047770000000     0.0368481  
C267     C      0.810180000000     0.496720000000     0.032150000000    -0.079896   
C268     C      0.796020000000     0.484600000000     0.014510000000     0.0717144  
C269     C      0.758240000000     0.423300000000     0.027320000000     0.0729361  
C270     C      0.810200000000     0.486300000000     0.066680000000     0.0355868  
C271     C      0.781180000000     0.488410000000     0.081250000000    -0.0832433  
C272     C      0.792900000000     0.506870000000     0.098340000000     0.0663432  
C273     C      0.861950000000     0.517860000000     0.087310000000     0.0737772  
C274     C      0.851130000000     0.500310000000     0.070030000000    -0.0785792  
C275     C      0.674230000000     0.721960000000     0.905480000000    -0.0802664  
C276     C      0.682510000000     0.764170000000     0.913430000000     0.0359579  
C277     C      0.724220000000     0.777520000000     0.915380000000    -0.0810226  
C278     C      0.756350000000     0.749190000000     0.909510000000     0.0713215  
C279     C      0.707280000000     0.694320000000     0.899750000000     0.0702339  
C280     C      0.648210000000     0.794240000000     0.919880000000     0.0361593  
C281     C      0.651160000000     0.841010000000     0.917520000000    -0.0810352  
C282     C      0.620100000000     0.869220000000     0.924570000000     0.0707897  
C283     C      0.582370000000     0.806170000000     0.935840000000     0.0712223  
C284     C      0.612990000000     0.776880000000     0.928990000000    -0.0803126  
C285     C      0.036370000000     0.693620000000     0.870180000000    -0.0799685  
C286     C      0.032880000000     0.735110000000     0.861030000000     0.0354066  
C287     C      0.993370000000     0.754660000000     0.859210000000    -0.0808765  
C288     C      0.958340000000     0.732580000000     0.866160000000     0.0714894  
C289     C      0.000400000000     0.672020000000     0.876780000000     0.0699352  
C290     C      0.069920000000     0.759020000000     0.853630000000     0.0363014  
C291     C      0.105060000000     0.766350000000     0.864740000000    -0.082492   
C292     C      0.136700000000     0.795070000000     0.858500000000     0.0700601  
C293     C      0.101130000000     0.806230000000     0.829980000000     0.0714981  
C294     C      0.068810000000     0.778140000000     0.835850000000    -0.0818993  
C295     C      0.771690000000     0.528380000000     0.271360000000    -0.0836516  
C296     C      0.792400000000     0.500200000000     0.283950000000     0.0358539  
C297     C      0.798740000000     0.455030000000     0.779100000000    -0.0785867  
C298     C      0.784010000000     0.438920000000     0.262080000000     0.0691271  
C299     C      0.756940000000     0.511070000000     0.254620000000     0.0693043  
C300     C      0.806170000000     0.518070000000     0.802190000000     0.0377523  
C301     C      0.823680000000     0.561130000000     0.803380000000    -0.082761   
C302     C      0.832890000000     0.579550000000     0.820680000000     0.072296   
C303     C      0.809200000000     0.513290000000     0.835790000000     0.0723146  
C304     C      0.799740000000     0.493650000000     0.818630000000    -0.0820148  
C305     C      0.097730000000     0.609390000000     0.102090000000    -0.0817916  
C306     C      0.128200000000     0.596510000000     0.115040000000     0.0355439  
C307     C      0.129400000000     0.551260000000     0.120640000000    -0.080946   
C308     C      0.101220000000     0.520280000000     0.113250000000     0.0717203  
C309     C      0.069930000000     0.577460000000     0.094980000000     0.0721116  
C310     C      0.160170000000     0.629050000000     0.121900000000     0.0334132  
C311     C      0.176350000000     0.662520000000     0.110180000000    -0.0796648  
C312     C      0.209990000000     0.688870000000     0.116010000000     0.0691092  
C313     C      0.211060000000     0.651500000000     0.145090000000     0.0696468  
C314     C      0.177010000000     0.625020000000     0.139830000000    -0.0822062  
C315     C      0.173200000000     0.205200000000     0.039020000000    -0.0809483  
C316     C      0.174500000000     0.251170000000     0.034480000000     0.0362546  
C317     C      0.208950000000     0.267150000000     0.024400000000    -0.0810623  
C318     C      0.242020000000     0.238360000000     0.020160000000     0.0709237  
C319     C      0.206630000000     0.177110000000     0.034260000000     0.0698774  
C320     C      0.141540000000     0.282890000000     0.041080000000     0.0356061  
C321     C      0.099640000000     0.269590000000     0.042630000000    -0.078613   
C322     C      0.069820000000     0.299790000000     0.049530000000     0.0701764  
C323     C      0.121590000000     0.356200000000     0.053010000000     0.0710834  
C324     C      0.152170000000     0.326840000000     0.046430000000    -0.0805048  
C325     C      0.897600000000     0.424300000000     0.155440000000    -0.08021    
C326     C      0.909480000000     0.383830000000     0.163920000000     0.0382175  
C327     C      0.927180000000     0.349960000000     0.152910000000    -0.083563   
C328     C      0.935760000000     0.358130000000     0.134250000000     0.0695298  
C329     C      0.906990000000     0.431540000000     0.136650000000     0.071574   
C330     C      0.906000000000     0.377000000000     0.184270000000     0.0339746  
C331     C      0.940030000000     0.359460000000     0.194070000000    -0.0821087  
C332     C      0.935450000000     0.347080000000     0.212620000000     0.0674796  
C333     C      0.865100000000     0.372000000000     0.212500000000     0.0652984  
C334     C      0.868780000000     0.385300000000     0.193880000000    -0.0794714  
C335     C      0.908060000000     0.532160000000     0.006320000000    -0.082213   
C336     C      0.895610000000     0.500230000000     0.993140000000     0.0335011  
C337     C      0.897690000000     0.454480000000     0.997810000000    -0.0791776  
C338     C      0.912940000000     0.441610000000     0.015240000000     0.0681247  
C339     C      0.923500000000     0.518170000000     0.023460000000     0.0649078  
C340     C      0.881930000000     0.515250000000     0.974460000000     0.0396179  
C341     C      0.855260000000     0.552330000000     0.972660000000    -0.0781985  
C342     C      0.846920000000     0.570100000000     0.955140000000     0.0759375  
C343     C      0.889420000000     0.514390000000     0.940950000000     0.0735045  
C344     C      0.898150000000     0.495390000000     0.958320000000    -0.0790392  
C345     C      0.117840000000     0.589150000000     0.868470000000    -0.0822641  
C346     C      0.154900000000     0.591680000000     0.858190000000     0.0361189  
C347     C      0.157910000000     0.567090000000     0.841630000000    -0.0816932  
C348     C      0.125260000000     0.539030000000     0.836170000000     0.0709612  
C349     C      0.085790000000     0.560460000000     0.862640000000     0.0697369  
C350     C      0.191350000000     0.617520000000     0.865110000000     0.0356124  
C351     C      0.187050000000     0.661220000000     0.872230000000    -0.0799782  
C352     C      0.222450000000     0.684930000000     0.878110000000     0.070046   
C353     C      0.265650000000     0.622500000000     0.870710000000     0.0712069  
C354     C      0.231160000000     0.598110000000     0.864610000000    -0.0810556  
C355     C      0.223480000000     0.254660000000     0.796900000000    -0.0813964  
C356     C      0.181760000000     0.244130000000     0.293150000000     0.0355686  
C357     C      0.173150000000     0.206400000000     0.282090000000    -0.0817754  
C358     C      0.205900000000     0.179190000000     0.275720000000     0.0695299  
C359     C      0.255340000000     0.227130000000     0.790180000000     0.0713648  
C360     C      0.147760000000     0.272560000000     0.800910000000     0.0351355  
C361     C      0.150310000000     0.288840000000     0.819150000000    -0.081857   
C362     C      0.119810000000     0.318110000000     0.825950000000     0.0709367  
C363     C      0.083430000000     0.314540000000     0.297310000000     0.0699178  
C364     C      0.113320000000     0.284960000000     0.290090000000    -0.0823464  
C365     C      0.927650000000     0.321040000000     0.903940000000    -0.0827776  
C366     C      0.916080000000     0.351000000000     0.918070000000     0.0367226  
C367     C      0.918130000000     0.397280000000     0.914560000000    -0.0792621  
C368     C      0.931930000000     0.412740000000     0.897290000000     0.067513   
C369     C      0.941720000000     0.337590000000     0.886930000000     0.0691487  
C370     C      0.903250000000     0.333780000000     0.936540000000     0.0373205  
C371     C      0.877620000000     0.295810000000     0.937910000000    -0.0800204  
C372     C      0.868860000000     0.277350000000     0.955260000000     0.0733264  
C373     C      0.908860000000     0.334120000000     0.970110000000     0.0712546  
C374     C      0.918200000000     0.353590000000     0.952920000000    -0.0812018  
C375     C      0.898390000000     0.485760000000     0.221080000000    -0.0816569  
C376     C      0.879190000000     0.506850000000     0.236290000000     0.0381526  
C377     C      0.852810000000     0.543530000000     0.233010000000    -0.0805809  
C378     C      0.847580000000     0.559630000000     0.214970000000     0.0728591  
C379     C      0.892750000000     0.503030000000     0.203210000000     0.0719157  
C380     C      0.889880000000     0.493360000000     0.255530000000     0.0368148  
C381     C      0.893900000000     0.447910000000     0.260340000000    -0.0793074  
C382     C      0.909520000000     0.436100000000     0.277760000000     0.0698788  
C383     C      0.915510000000     0.513160000000     0.286060000000     0.07023    
C384     C      0.899500000000     0.526130000000     0.268860000000    -0.0818703  
C385     C      0.944000000000     0.456770000000     0.805670000000     0.345758   
C386     C      0.059170000000     0.362820000000     0.321440000000     0.347693   
C387     C      0.060500000000     0.503200000000     0.342380000000     0.346606   
C388     C      0.960160000000     0.398590000000     0.367280000000     0.344822   
C389     C      0.945170000000     0.460430000000     0.544050000000     0.33817    
C390     C      0.051640000000     0.371970000000     0.561620000000     0.345022   
C391     C      0.045800000000     0.501760000000     0.592760000000     0.34642    
C392     C      0.943140000000     0.409130000000     0.609170000000     0.347898   
C393     C      0.859400000000     0.572930000000     0.422680000000     0.348217   
C394     C      0.780300000000     0.680140000000     0.396760000000     0.346937   
C395     C      0.926300000000     0.669210000000     0.380190000000     0.345992   
C396     C      0.832320000000     0.576260000000     0.353570000000     0.35031    
C397     C      0.802100000000     0.676140000000     0.652080000000     0.34635    
C398     C      0.866130000000     0.559740000000     0.683050000000     0.351009   
C399     C      0.842520000000     0.545940000000     0.616910000000     0.343312   
C400     C      0.937860000000     0.650940000000     0.635970000000     0.349707   
C401     C      0.878510000000     0.274860000000     0.487870000000     0.349493   
C402     C      0.787440000000     0.179400000000     0.515180000000     0.346931   
C403     C      0.933300000000     0.166860000000     0.529660000000     0.347813   
C404     C      0.857440000000     0.279700000000     0.555700000000     0.35118    
C405     C      0.944180000000     0.209670000000     0.774690000000     0.344634   
C406     C      0.868130000000     0.309460000000     0.306580000000     0.356092   
C407     C      0.891700000000     0.330480000000     0.738280000000     0.340893   
C408     C      0.802120000000     0.223020000000     0.758260000000     0.349832   
C409     C      0.773420000000     0.393920000000     0.430360000000     0.344737   
C410     C      0.663530000000     0.491290000000     0.446120000000     0.349948   
C411     C      0.654940000000     0.348250000000     0.465330000000     0.344922   
C412     C      0.754450000000     0.438300000000     0.494940000000     0.348364   
C413     C      0.633950000000     0.471320000000     0.691040000000     0.346586   
C414     C      0.756810000000     0.390190000000     0.673780000000     0.341806   
C415     C      0.744520000000     0.449410000000     0.734440000000     0.346318   
C416     C      0.650760000000     0.333460000000     0.714270000000     0.34797    
C417     C      0.364730000000     0.792170000000     0.422320000000     0.347854   
C418     C      0.441030000000     0.684120000000     0.397460000000     0.347917   
C419     C      0.296340000000     0.689980000000     0.381790000000     0.345242   
C420     C      0.386970000000     0.786320000000     0.353080000000     0.351552   
C421     C      0.348470000000     0.797460000000     0.677100000000     0.347917   
C422     C      0.410100000000     0.674410000000     0.649480000000     0.346719   
C423     C      0.264740000000     0.703630000000     0.637380000000     0.345728   
C424     C      0.367370000000     0.785460000000     0.609250000000     0.353504   
C425     C      0.545780000000     0.014160000000     0.469140000000     0.344608   
C426     C      0.454490000000     0.906960000000     0.488380000000     0.342837   
C427     C      0.435580000000     0.959220000000     0.425470000000     0.346781   
C428     C      0.556530000000     0.880470000000     0.440920000000     0.342915   
C429     C      0.476080000000     0.915440000000     0.734810000000     0.347033   
C430     C      0.573710000000     0.030310000000     0.716500000000     0.347182   
C431     C      0.587990000000     0.892920000000     0.691580000000     0.347875   
C432     C      0.466910000000     0.977080000000     0.675450000000     0.345866   
C433     C      0.334070000000     0.069000000000     0.484450000000     0.350828   
C434     C      0.428450000000     0.159890000000     0.513320000000     0.344384   
C435     C      0.275680000000     0.167390000000     0.522640000000     0.344443   
C436     C      0.361910000000     0.071320000000     0.554840000000     0.348942   
C437     C      0.351090000000     0.050050000000     0.301650000000     0.35016    
C438     C      0.278420000000     0.161080000000     0.774740000000     0.3471     
C439     C      0.422010000000     0.150210000000     0.761380000000     0.346197   
C440     C      0.335040000000     0.056950000000     0.731390000000     0.350474   
C441     C      0.155950000000     0.990910000000     0.315220000000     0.344372   
C442     C      0.274330000000     0.901960000000     0.798930000000     0.345451   
C443     C      0.251880000000     0.955730000000     0.362320000000     0.346812   
C444     C      0.162000000000     0.848790000000     0.336660000000     0.346693   
C445     C      0.174340000000     0.826500000000     0.589670000000     0.346941   
C446     C      0.274870000000     0.936990000000     0.608210000000     0.34496    
C447     C      0.278330000000     0.881280000000     0.546500000000     0.342837   
C448     C      0.161380000000     0.965520000000     0.567710000000     0.347657   
C449     C      0.301850000000     0.015190000000     0.645370000000    -0.0817005  
C450     C      0.315210000000     0.985500000000     0.659240000000     0.036272   
C451     C      0.319220000000     0.939700000000     0.654940000000    -0.0780084  
C452     C      0.308010000000     0.924240000000     0.637290000000     0.0672219  
C453     C      0.290360000000     0.998540000000     0.628010000000     0.0696965  
C454     C      0.322770000000     0.002260000000     0.678320000000     0.0382328  
C455     C      0.345090000000     0.042080000000     0.681190000000    -0.0802075  
C456     C      0.349280000000     0.059360000000     0.699080000000     0.0733811  
C457     C      0.309480000000     0.999020000000     0.711460000000     0.0710552  
C458     C      0.305120000000     0.980450000000     0.693700000000    -0.0811708  
C459     C      0.297450000000     0.990140000000     0.448870000000    -0.0813402  
C460     C      0.306120000000     0.014590000000     0.432690000000     0.0380294  
C461     C      0.326060000000     0.056260000000     0.434190000000    -0.0818359  
C462     C      0.336060000000     0.073250000000     0.451620000000     0.0749883  
C463     C      0.307320000000     0.008600000000     0.466200000000     0.0737284  
C464     C      0.292150000000     0.998510000000     0.414320000000     0.035249   
C465     C      0.300710000000     0.954680000000     0.408280000000    -0.0787038  
C466     C      0.287700000000     0.941010000000     0.390630000000     0.0690253  
C467     C      0.256910000000     0.012600000000     0.385270000000     0.0672811  
C468     C      0.270110000000     0.027570000000     0.402600000000    -0.0835647  
C469     C      0.409220000000     0.965580000000     0.631890000000    -0.0792575  
C470     C      0.405820000000     0.010660000000     0.626350000000     0.0360687  
C471     C      0.420330000000     0.044230000000     0.638420000000    -0.0836761  
C472     C      0.439180000000     0.032400000000     0.655150000000     0.0687428  
C473     C      0.428010000000     0.954930000000     0.648840000000     0.0695368  
C474     C      0.389550000000     0.022980000000     0.607720000000     0.0376009  
C475     C      0.400480000000     0.997920000000     0.591920000000    -0.080989   
C476     C      0.389490000000     0.013510000000     0.574240000000     0.0732147  
C477     C      0.355550000000     0.076790000000     0.587570000000     0.0733947  
C478     C      0.365670000000     0.062050000000     0.605370000000    -0.082167   
C479     C      0.386900000000     0.022370000000     0.387710000000    -0.0816636  
C480     C      0.381300000000     0.988410000000     0.374430000000     0.0377434  
C481     C      0.389680000000     0.943790000000     0.379480000000    -0.0803664  
C482     C      0.405500000000     0.934240000000     0.397110000000     0.0691827  
C483     C      0.403250000000     0.011710000000     0.405130000000     0.0694249  
C484     C      0.369680000000     0.000090000000     0.355080000000     0.0389257  
C485     C      0.338550000000     0.031950000000     0.351530000000    -0.0784889  
C486     C      0.331270000000     0.046360000000     0.333380000000     0.0764761  
C487     C      0.384620000000     0.998200000000     0.322050000000     0.0735596  
C488     C      0.392120000000     0.982310000000     0.340030000000    -0.0804577  
C489     C      0.371640000000     0.824030000000     0.725570000000    -0.079734   
C490     C      0.340130000000     0.855010000000     0.729660000000     0.0378349  
C491     C      0.313800000000     0.869540000000     0.715360000000    -0.081583   
C492     C      0.317890000000     0.851160000000     0.697580000000     0.0694958  
C493     C      0.375470000000     0.807120000000     0.707550000000     0.0729441  
C494     C      0.331110000000     0.868030000000     0.749070000000     0.0370854  
C495     C      0.322800000000     0.834790000000     0.762340000000    -0.0823166  
C496     C      0.305950000000     0.846970000000     0.779510000000     0.069661   
C497     C      0.309590000000     0.924330000000     0.771360000000     0.0696604  
C498     C      0.325950000000     0.913260000000     0.753960000000    -0.0801478  
C499     C      0.400990000000     0.902550000000     0.533430000000    -0.0774318  
C500     C      0.411280000000     0.858970000000     0.539400000000     0.0358737  
C501     C      0.436070000000     0.832100000000     0.527770000000    -0.082631   
C502     C      0.449620000000     0.848570000000     0.510700000000     0.0681915  
C503     C      0.414970000000     0.917950000000     0.516110000000     0.0695648  
C504     C      0.396640000000     0.841080000000     0.557600000000     0.0383847  
C505     C      0.394360000000     0.868520000000     0.573450000000    -0.0792222  
C506     C      0.383730000000     0.849690000000     0.590660000000     0.0774886  
C507     C      0.376410000000     0.777730000000     0.576750000000     0.0758404  
C508     C      0.386380000000     0.795430000000     0.559410000000    -0.080934   
C509     C      0.319750000000     0.857510000000     0.460520000000    -0.0802364  
C510     C      0.343040000000     0.841320000000     0.475590000000     0.0380168  
C511     C      0.376390000000     0.812150000000     0.472110000000    -0.0779019  
C512     C      0.384600000000     0.798060000000     0.453980000000     0.0757944  
C513     C      0.328440000000     0.842170000000     0.442560000000     0.0720981  
C514     C      0.330640000000     0.852420000000     0.494880000000     0.0376113  
C515     C      0.320680000000     0.896660000000     0.499780000000    -0.0796745  
C516     C      0.304880000000     0.905990000000     0.517430000000     0.068049   
C517     C      0.309620000000     0.828790000000     0.525710000000     0.0693112  
C518     C      0.326060000000     0.818410000000     0.508230000000    -0.0815706  
C519     C      0.446400000000     0.834770000000     0.770760000000    -0.0835531  
C520     C      0.424250000000     0.862270000000     0.783130000000     0.036021   
C521     C      0.417130000000     0.907280000000     0.278270000000    -0.0791012  
C522     C      0.433260000000     0.924250000000     0.761630000000     0.0700435  
C523     C      0.462410000000     0.852880000000     0.754380000000     0.0683518  
C524     C      0.410780000000     0.844280000000     0.301390000000     0.0378742  
C525     C      0.393480000000     0.801160000000     0.302740000000    -0.0821537  
C526     C      0.385050000000     0.782740000000     0.320160000000     0.0731692  
C527     C      0.409360000000     0.849070000000     0.334990000000     0.073659   
C528     C      0.418060000000     0.868630000000     0.317740000000    -0.0812927  
C529     C      0.573540000000     0.546200000000     0.660820000000    -0.0808936  
C530     C      0.538190000000     0.554680000000     0.671760000000     0.0359777  
C531     C      0.535770000000     0.534650000000     0.689370000000    -0.0808062  
C532     C      0.568200000000     0.507070000000     0.695670000000     0.0706231  
C533     C      0.605270000000     0.518270000000     0.667500000000     0.0708246  
C534     C      0.504380000000     0.584880000000     0.665000000000     0.0361085  
C535     C      0.513930000000     0.625130000000     0.655760000000    -0.0809257  
C536     C      0.481910000000     0.654170000000     0.650250000000     0.0710063  
C537     C      0.431030000000     0.603950000000     0.662240000000     0.0705968  
C538     C      0.462300000000     0.574230000000     0.668030000000    -0.0810002  
C539     C      0.531720000000     0.176790000000     0.751560000000    -0.0801669  
C540     C      0.527400000000     0.217760000000     0.742120000000     0.0366632  
C541     C      0.487690000000     0.236880000000     0.740520000000    -0.0817452  
C542     C      0.453130000000     0.214540000000     0.747740000000     0.0721748  
C543     C      0.496150000000     0.154790000000     0.758390000000     0.0715361  
C544     C      0.563640000000     0.241390000000     0.733900000000     0.0364214  
C545     C      0.598550000000     0.252170000000     0.744650000000    -0.0818391  
C546     C      0.628780000000     0.281470000000     0.737520000000     0.0700792  
C547     C      0.592430000000     0.286060000000     0.708890000000     0.0708943  
C548     C      0.561520000000     0.257320000000     0.715620000000    -0.0821113  
C549     C      0.547860000000     0.643390000000     0.404820000000    -0.0818851  
C550     C      0.541040000000     0.608940000000     0.417780000000     0.0352205  
C551     C      0.500080000000     0.599340000000     0.423230000000    -0.0817177  
C552     C      0.467010000000     0.624130000000     0.415910000000     0.0712721  
C553     C      0.513970000000     0.668070000000     0.397960000000     0.0699688  
C554     C      0.576080000000     0.582130000000     0.425400000000     0.0355398  
C555     C      0.605600000000     0.562460000000     0.413570000000    -0.0815332  
C556     C      0.635460000000     0.532990000000     0.420830000000     0.0718826  
C557     C      0.609340000000     0.544580000000     0.451320000000     0.0713194  
C558     C      0.578670000000     0.573630000000     0.444500000000    -0.0823166  
C559     C      0.552600000000     0.299520000000     0.474860000000    -0.0812353  
C560     C      0.563340000000     0.260260000000     0.484540000000     0.035834   
C561     C      0.605620000000     0.248640000000     0.485900000000    -0.0802007  
C562     C      0.636100000000     0.277590000000     0.478680000000     0.0700986  
C563     C      0.583710000000     0.327480000000     0.467790000000     0.0710592  
C564     C      0.530310000000     0.232930000000     0.493660000000     0.0360903  
C565     C      0.497370000000     0.254420000000     0.502930000000    -0.0814887  
C566     C      0.464480000000     0.229200000000     0.510150000000     0.0710928  
C567     C      0.496870000000     0.161440000000     0.500230000000     0.0702908  
C568     C      0.530480000000     0.185750000000     0.492830000000    -0.0811849  
C569     C      0.045240000000     0.164290000000     0.789550000000    -0.0813708  
C570     C      0.037280000000     0.117840000000     0.789340000000     0.0357718  
C571     C      0.998290000000     0.103010000000     0.283020000000    -0.0808294  
C572     C      0.967950000000     0.134200000000     0.277710000000     0.0706938  
C573     C      0.014130000000     0.194640000000     0.784090000000     0.0700577  
C574     C      0.068780000000     0.084920000000     0.296180000000     0.0351758  
C575     C      0.111230000000     0.089580000000     0.791860000000    -0.078767   
C576     C      0.140090000000     0.057920000000     0.798380000000     0.0693286  
C577     C      0.086060000000     0.017390000000     0.313490000000     0.0705743  
C578     C      0.056450000000     0.048330000000     0.307200000000    -0.080604   
C579     C      0.652690000000     0.119060000000     0.714810000000    -0.0817882  
C580     C      0.660560000000     0.125940000000     0.733750000000     0.0359618  
C581     C      0.635540000000     0.103440000000     0.746750000000    -0.0838932  
C582     C      0.605260000000     0.072890000000     0.740710000000     0.0688513  
C583     C      0.622290000000     0.088220000000     0.709270000000     0.070426   
C584     C      0.696840000000     0.153350000000     0.739840000000     0.0363     
C585     C      0.735240000000     0.149150000000     0.730660000000    -0.0804335  
C586     C      0.769990000000     0.172750000000     0.737030000000     0.0726965  
C587     C      0.729790000000     0.205460000000     0.761220000000     0.0714194  
C588     C      0.694330000000     0.182020000000     0.755280000000    -0.0809368  
C589     C      0.864020000000     0.309540000000     0.357230000000    -0.0803533  
C590     C      0.845920000000     0.351540000000     0.360950000000     0.0392167  
C591     C      0.839470000000     0.381200000000     0.346030000000    -0.0796192  
C592     C      0.848740000000     0.367460000000     0.327860000000     0.0777712  
C593     C      0.872510000000     0.296830000000     0.339000000000     0.0765007  
C594     C      0.830910000000     0.362520000000     0.380030000000     0.0375499  
C595     C      0.813420000000     0.328740000000     0.391240000000    -0.0827079  
C596     C      0.796120000000     0.339590000000     0.408430000000     0.0694178  
C597     C      0.814640000000     0.416280000000     0.404390000000     0.0702144  
C598     C      0.831940000000     0.406670000000     0.386960000000    -0.0792032  
C599     C      0.990660000000     0.071050000000     0.548850000000    -0.0808179  
C600     C      0.032110000000     0.083640000000     0.545480000000     0.0353664  
C601     C      0.039730000000     0.124330000000     0.536180000000    -0.081289   
C602     C      0.006280000000     0.151600000000     0.530730000000     0.0693897  
C603     C      0.958060000000     0.099020000000     0.543210000000     0.0712037  
C604     C      0.066980000000     0.054180000000     0.551610000000     0.0358354  
C605     C      0.065650000000     0.032800000000     0.568960000000    -0.0815605  
C606     C      0.097780000000     0.003700000000     0.574240000000     0.0708665  
C607     C      0.132890000000     0.016760000000     0.545710000000     0.0709001  
C608     C      0.101390000000     0.046270000000     0.540030000000    -0.0814906  
C609     C      0.675980000000     0.152920000000     0.510660000000    -0.0831066  
C610     C      0.677190000000     0.119350000000     0.496990000000     0.0353744  
C611     C      0.716030000000     0.104930000000     0.490360000000    -0.0817165  
C612     C      0.752500000000     0.124470000000     0.497080000000     0.0717899  
C613     C      0.713260000000     0.172550000000     0.516820000000     0.0703212  
C614     C      0.638640000000     0.098280000000     0.489680000000     0.033281   
C615     C      0.608660000000     0.080150000000     0.501700000000    -0.0829075  
C616     C      0.576400000000     0.053630000000     0.494500000000     0.0677244  
C617     C      0.600770000000     0.066200000000     0.463810000000     0.0692754  
C618     C      0.633580000000     0.092400000000     0.470520000000    -0.0834104  
C619     C      0.818590000000     0.359430000000     0.590410000000    -0.0795512  
C620     C      0.835340000000     0.341010000000     0.606730000000     0.0384994  
C621     C      0.863750000000     0.305340000000     0.605170000000    -0.0790729  
C622     C      0.872260000000     0.286640000000     0.587830000000     0.0762314  
C623     C      0.827880000000     0.339830000000     0.573220000000     0.0746643  
C624     C      0.819830000000     0.355370000000     0.625270000000     0.0370466  
C625     C      0.810000000000     0.400460000000     0.628990000000    -0.0801194  
C626     C      0.790830000000     0.412020000000     0.645790000000     0.0668685  
C627     C      0.792100000000     0.335690000000     0.655510000000     0.0690259  
C628     C      0.811650000000     0.323070000000     0.639020000000    -0.0810803  
C629     C      0.646370000000     0.816640000000     0.661090000000    -0.0811237  
C630     C      0.679760000000     0.804240000000     0.672550000000     0.0362773  
C631     C      0.681700000000     0.822380000000     0.690510000000    -0.0811742  
C632     C      0.650750000000     0.852010000000     0.696640000000     0.071016   
C633     C      0.616000000000     0.846510000000     0.667660000000     0.0711316  
C634     C      0.712170000000     0.772080000000     0.666000000000     0.0363061  
C635     C      0.701210000000     0.733490000000     0.655900000000    -0.0807834  
C636     C      0.731890000000     0.702240000000     0.650890000000     0.0710573  
C637     C      0.784140000000     0.747160000000     0.665040000000     0.0713797  
C638     C      0.754310000000     0.779020000000     0.670290000000    -0.0813471  
C639     C      0.006080000000     0.722740000000     0.608020000000    -0.082137   
C640     C      0.045200000000     0.714510000000     0.615990000000     0.0345903  
C641     C      0.047570000000     0.684500000000     0.631010000000    -0.0822542  
C642     C      0.011360000000     0.663360000000     0.637570000000     0.0713359  
C643     C      0.970660000000     0.701320000000     0.614960000000     0.0721655  
C644     C      0.082710000000     0.738560000000     0.608890000000     0.0329059  
C645     C      0.087780000000     0.746390000000     0.589810000000    -0.0843849  
C646     C      0.119910000000     0.774240000000     0.583500000000     0.0689629  
C647     C      0.144120000000     0.784220000000     0.614330000000     0.0688361  
C648     C      0.112270000000     0.756550000000     0.621140000000    -0.0801627  
C649     C      0.771230000000     0.434910000000     0.545190000000    -0.0800458  
C650     C      0.797400000000     0.472070000000     0.547770000000     0.0368508  
C651     C      0.810180000000     0.496710000000     0.532150000000    -0.0799785  
C652     C      0.796020000000     0.484580000000     0.514510000000     0.0716958  
C653     C      0.758230000000     0.423300000000     0.527320000000     0.0729253  
C654     C      0.810190000000     0.486290000000     0.566680000000     0.035587   
C655     C      0.781170000000     0.488410000000     0.581250000000    -0.0832436  
C656     C      0.792890000000     0.506870000000     0.598340000000     0.0663393  
C657     C      0.861940000000     0.517850000000     0.587310000000     0.0737815  
C658     C      0.851120000000     0.500300000000     0.570030000000    -0.0786713  
C659     C      0.674240000000     0.721960000000     0.405480000000    -0.0802156  
C660     C      0.682520000000     0.764170000000     0.413440000000     0.0359793  
C661     C      0.724230000000     0.777520000000     0.415390000000    -0.0810937  
C662     C      0.756350000000     0.749180000000     0.409510000000     0.071445   
C663     C      0.707280000000     0.694320000000     0.399750000000     0.0702144  
C664     C      0.648220000000     0.794240000000     0.419880000000     0.0361221  
C665     C      0.651160000000     0.841010000000     0.417520000000    -0.0809768  
C666     C      0.620100000000     0.869220000000     0.424570000000     0.0708299  
C667     C      0.582370000000     0.806170000000     0.435850000000     0.0711315  
C668     C      0.613000000000     0.776880000000     0.428990000000    -0.0801874  
C669     C      0.036370000000     0.693620000000     0.370180000000    -0.0800264  
C670     C      0.032880000000     0.735110000000     0.361030000000     0.0354175  
C671     C      0.993370000000     0.754660000000     0.359210000000    -0.0808379  
C672     C      0.958340000000     0.732580000000     0.366160000000     0.0714006  
C673     C      0.000400000000     0.672030000000     0.376780000000     0.070062   
C674     C      0.069920000000     0.759020000000     0.353630000000     0.0363033  
C675     C      0.105060000000     0.766350000000     0.364740000000    -0.0824878  
C676     C      0.136700000000     0.795070000000     0.358500000000     0.0700656  
C677     C      0.101130000000     0.806230000000     0.329980000000     0.0714989  
C678     C      0.068810000000     0.778140000000     0.335850000000    -0.0819002  
C679     C      0.771700000000     0.528380000000     0.771360000000    -0.0836409  
C680     C      0.792400000000     0.500200000000     0.783950000000     0.0358498  
C681     C      0.798740000000     0.455030000000     0.279100000000    -0.0786093  
C682     C      0.784010000000     0.438920000000     0.762080000000     0.0690733  
C683     C      0.756940000000     0.511070000000     0.754620000000     0.0692991  
C684     C      0.806170000000     0.518070000000     0.302190000000     0.0377409  
C685     C      0.823680000000     0.561130000000     0.303380000000    -0.0827289  
C686     C      0.832890000000     0.579550000000     0.320680000000     0.0722052  
C687     C      0.809210000000     0.513290000000     0.335790000000     0.0723656  
C688     C      0.799740000000     0.493650000000     0.318630000000    -0.0820363  
C689     C      0.097730000000     0.609380000000     0.602090000000    -0.0817571  
C690     C      0.128200000000     0.596510000000     0.615040000000     0.0355251  
C691     C      0.129400000000     0.551260000000     0.620640000000    -0.0809358  
C692     C      0.101220000000     0.520280000000     0.613250000000     0.0717019  
C693     C      0.069930000000     0.577460000000     0.594980000000     0.0720905  
C694     C      0.160170000000     0.629050000000     0.621900000000     0.0334114  
C695     C      0.176350000000     0.662520000000     0.610180000000    -0.0796745  
C696     C      0.209980000000     0.688870000000     0.616010000000     0.069089   
C697     C      0.211060000000     0.651500000000     0.645090000000     0.0696778  
C698     C      0.177010000000     0.625020000000     0.639830000000    -0.0821904  
C699     C      0.173200000000     0.205200000000     0.539020000000    -0.0809395  
C700     C      0.174500000000     0.251170000000     0.534480000000     0.0362479  
C701     C      0.208950000000     0.267150000000     0.524400000000    -0.0811495  
C702     C      0.242020000000     0.238350000000     0.520160000000     0.0709359  
C703     C      0.206630000000     0.177100000000     0.534260000000     0.0698094  
C704     C      0.141540000000     0.282890000000     0.541080000000     0.0355621  
C705     C      0.099640000000     0.269590000000     0.542630000000    -0.0786465  
C706     C      0.069820000000     0.299790000000     0.549530000000     0.0702179  
C707     C      0.121590000000     0.356200000000     0.553010000000     0.071014   
C708     C      0.152170000000     0.326840000000     0.546430000000    -0.0804506  
C709     C      0.897600000000     0.424290000000     0.655440000000    -0.0802584  
C710     C      0.909480000000     0.383830000000     0.663920000000     0.0382362  
C711     C      0.927190000000     0.349960000000     0.652910000000    -0.0835374  
C712     C      0.935760000000     0.358130000000     0.634250000000     0.0695519  
C713     C      0.906990000000     0.431530000000     0.636650000000     0.0716751  
C714     C      0.906000000000     0.377000000000     0.684270000000     0.0339579  
C715     C      0.940030000000     0.359460000000     0.694070000000    -0.0821062  
C716     C      0.935450000000     0.347080000000     0.712620000000     0.0674641  
C717     C      0.865100000000     0.371990000000     0.712500000000     0.0652836  
C718     C      0.868780000000     0.385300000000     0.693880000000    -0.0794442  
C719     C      0.908060000000     0.532150000000     0.506330000000    -0.082933   
C720     C      0.895610000000     0.500230000000     0.493140000000     0.0340398  
C721     C      0.897700000000     0.454480000000     0.497810000000    -0.0784915  
C722     C      0.912940000000     0.441610000000     0.515240000000     0.06744    
C723     C      0.923500000000     0.518160000000     0.523460000000     0.0651347  
C724     C      0.881940000000     0.515250000000     0.474460000000     0.0395664  
C725     C      0.855260000000     0.552330000000     0.472660000000    -0.0781178  
C726     C      0.846920000000     0.570090000000     0.455140000000     0.0760037  
C727     C      0.889430000000     0.514390000000     0.440950000000     0.0734732  
C728     C      0.898160000000     0.495390000000     0.458320000000    -0.0789577  
C729     C      0.117840000000     0.589150000000     0.368470000000    -0.0821878  
C730     C      0.154900000000     0.591690000000     0.358190000000     0.0360631  
C731     C      0.157910000000     0.567090000000     0.341630000000    -0.0816103  
C732     C      0.125260000000     0.539030000000     0.336170000000     0.0709277  
C733     C      0.085790000000     0.560450000000     0.362650000000     0.0696514  
C734     C      0.191350000000     0.617520000000     0.365110000000     0.0356395  
C735     C      0.187050000000     0.661220000000     0.372230000000    -0.0799778  
C736     C      0.222450000000     0.684930000000     0.378110000000     0.0700584  
C737     C      0.265650000000     0.622500000000     0.370710000000     0.0712125  
C738     C      0.231160000000     0.598110000000     0.364610000000    -0.0810534  
C739     C      0.223490000000     0.254660000000     0.296900000000    -0.0813773  
C740     C      0.181750000000     0.244130000000     0.793140000000     0.0355866  
C741     C      0.173150000000     0.206400000000     0.782080000000    -0.0818346  
C742     C      0.205890000000     0.179190000000     0.775720000000     0.069575   
C743     C      0.255340000000     0.227130000000     0.290180000000     0.0714227  
C744     C      0.147760000000     0.272560000000     0.300910000000     0.0351297  
C745     C      0.150310000000     0.288840000000     0.319150000000    -0.0817933  
C746     C      0.119820000000     0.318110000000     0.325950000000     0.0709155  
C747     C      0.083430000000     0.314550000000     0.797310000000     0.0699889  
C748     C      0.113310000000     0.284960000000     0.790090000000    -0.0823769  
C749     C      0.927650000000     0.321040000000     0.403940000000    -0.0828075  
C750     C      0.916080000000     0.351000000000     0.418070000000     0.0367645  
C751     C      0.918130000000     0.397280000000     0.414570000000    -0.0792757  
C752     C      0.931930000000     0.412740000000     0.397290000000     0.0674512  
C753     C      0.941720000000     0.337590000000     0.386930000000     0.0692215  
C754     C      0.903250000000     0.333780000000     0.436540000000     0.0373423  
C755     C      0.877620000000     0.295810000000     0.437910000000    -0.0800191  
C756     C      0.868860000000     0.277350000000     0.455260000000     0.0733887  
C757     C      0.908860000000     0.334120000000     0.470110000000     0.0713601  
C758     C      0.918200000000     0.353590000000     0.452920000000    -0.0811961  
C759     C      0.898390000000     0.485760000000     0.721080000000    -0.0815998  
C760     C      0.879190000000     0.506850000000     0.736290000000     0.0381256  
C761     C      0.852810000000     0.543530000000     0.733010000000    -0.0805504  
C762     C      0.847580000000     0.559630000000     0.714970000000     0.0728742  
C763     C      0.892750000000     0.503020000000     0.703210000000     0.0718083  
C764     C      0.889880000000     0.493360000000     0.755530000000     0.0368498  
C765     C      0.893890000000     0.447910000000     0.760340000000    -0.079355   
C766     C      0.909510000000     0.436110000000     0.777760000000     0.0699327  
C767     C      0.915510000000     0.513160000000     0.786060000000     0.070244   
C768     C      0.899500000000     0.526130000000     0.768860000000    -0.0818866  
Cd1      Cd     0.002200000000     0.431300000000     0.834430000000     0.509752   
Cd2      Cd     0.991570000000     0.434570000000     0.076810000000     0.507816   
Cd3      Cd     0.849680000000     0.621660000000     0.888210000000     0.510903   
Cd4      Cd     0.862640000000     0.605130000000     0.147480000000     0.509561   
Cd5      Cd     0.864480000000     0.226990000000     0.022200000000     0.511931   
Cd6      Cd     0.875860000000     0.271950000000     0.269620000000     0.50876    
Cd7      Cd     0.715630000000     0.418640000000     0.959500000000     0.508927   
Cd8      Cd     0.699380000000     0.411200000000     0.203500000000     0.509046   
Cd9      Cd     0.371600000000     0.741470000000     0.888110000000     0.510013   
Cd10     Cd     0.346610000000     0.742400000000     0.143880000000     0.509787   
Cd11     Cd     0.493890000000     0.941550000000     0.955370000000     0.507844   
Cd12     Cd     0.524090000000     0.954050000000     0.204830000000     0.51082    
Cd13     Cd     0.350320000000     0.113630000000     0.019150000000     0.512632   
Cd14     Cd     0.346150000000     0.099980000000     0.267140000000     0.509482   
Cd15     Cd     0.215330000000     0.924220000000     0.828110000000     0.508787   
Cd16     Cd     0.225640000000     0.901550000000     0.078030000000     0.509927   
Cd17     Cd     0.002200000000     0.431300000000     0.334430000000     0.509733   
Cd18     Cd     0.991570000000     0.434560000000     0.576820000000     0.507778   
Cd19     Cd     0.849680000000     0.621660000000     0.388210000000     0.510916   
Cd20     Cd     0.862630000000     0.605120000000     0.647480000000     0.509514   
Cd21     Cd     0.864480000000     0.226990000000     0.522200000000     0.511773   
Cd22     Cd     0.875860000000     0.271950000000     0.769620000000     0.508752   
Cd23     Cd     0.715630000000     0.418630000000     0.459500000000     0.508994   
Cd24     Cd     0.699380000000     0.411200000000     0.703500000000     0.509051   
Cd25     Cd     0.371600000000     0.741470000000     0.388110000000     0.510014   
Cd26     Cd     0.346610000000     0.742400000000     0.643880000000     0.509766   
Cd27     Cd     0.493890000000     0.941550000000     0.455370000000     0.507855   
Cd28     Cd     0.524100000000     0.954050000000     0.704830000000     0.51083    
Cd29     Cd     0.350320000000     0.113620000000     0.519150000000     0.512315   
Cd30     Cd     0.346150000000     0.099980000000     0.767140000000     0.509499   
Cd31     Cd     0.215330000000     0.924220000000     0.328110000000     0.508798   
Cd32     Cd     0.225640000000     0.901540000000     0.578030000000     0.50988    
H1       H      0.330540000000     0.915970000000     0.165180000000     0.0616932  
H2       H      0.310520000000     0.888400000000     0.134580000000     0.0503606  
H3       H      0.278710000000     0.022430000000     0.117860000000     0.0343283  
H4       H      0.298520000000     0.050900000000     0.148130000000     0.0542301  
H5       H      0.358890000000     0.060120000000     0.169640000000     0.0545799  
H6       H      0.366850000000     0.090360000000     0.200640000000     0.0367379  
H7       H      0.294190000000     0.982170000000     0.222950000000     0.0272847  
H8       H      0.286640000000     0.950240000000     0.191920000000     0.0540301  
H9       H      0.333570000000     0.075890000000     0.921940000000     0.053403   
H10      H      0.351300000000     0.105860000000     0.952140000000     0.0363733  
H11      H      0.298450000000     0.990000000000     0.978520000000     0.0285423  
H12      H      0.281580000000     0.957980000000     0.948180000000     0.0532772  
H13      H      0.318020000000     0.931520000000     0.916980000000     0.058925   
H14      H      0.295110000000     0.906950000000     0.886280000000     0.0420855  
H15      H      0.239670000000     0.036090000000     0.876660000000     0.0324304  
H16      H      0.262600000000     0.061620000000     0.906910000000     0.0552522  
H17      H      0.418730000000     0.079530000000     0.134670000000     0.05454    
H18      H      0.450990000000     0.059400000000     0.163830000000     0.0337531  
H19      H      0.430700000000     0.919610000000     0.152520000000     0.0393451  
H20      H      0.397740000000     0.938640000000     0.123150000000     0.0577785  
H21      H      0.419220000000     0.967690000000     0.093100000000     0.0530015  
H22      H      0.399710000000     0.994130000000     0.062300000000     0.0295734  
H23      H      0.337910000000     0.107860000000     0.086390000000     0.035605   
H24      H      0.355540000000     0.081780000000     0.117210000000     0.0523776  
H25      H      0.384510000000     0.916530000000     0.869770000000     0.0649241  
H26      H      0.412550000000     0.899370000000     0.900350000000     0.0433825  
H27      H      0.408920000000     0.039170000000     0.914740000000     0.0329239  
H28      H      0.380660000000     0.057330000000     0.884380000000     0.0543934  
H29      H      0.320610000000     0.046610000000     0.862750000000     0.0566336  
H30      H      0.307320000000     0.071710000000     0.831330000000     0.0394058  
H31      H      0.403960000000     0.985340000000     0.310890000000     0.0273533  
H32      H      0.416890000000     0.958100000000     0.842270000000     0.0536823  
H33      H      0.288630000000     0.892960000000     0.218160000000     0.0545454  
H34      H      0.295730000000     0.861600000000     0.187050000000     0.0287126  
H35      H      0.399750000000     0.782370000000     0.205030000000     0.0372738  
H36      H      0.392280000000     0.811800000000     0.236340000000     0.0560536  
H37      H      0.326820000000     0.799410000000     0.259070000000     0.0551447  
H38      H      0.297940000000     0.820190000000     0.789130000000     0.0341598  
H39      H      0.304590000000     0.959690000000     0.274440000000     0.0474571  
H40      H      0.333510000000     0.939750000000     0.244200000000     0.0653471  
H41      H      0.445720000000     0.798610000000     0.031910000000     0.0540963  
H42      H      0.468850000000     0.826550000000     0.002220000000     0.0332587  
H43      H      0.406270000000     0.951750000000     0.011910000000     0.0444339  
H44      H      0.381560000000     0.924350000000     0.041850000000     0.0619138  
H45      H      0.402000000000     0.903970000000     0.072700000000     0.0530803  
H46      H      0.382900000000     0.871710000000     0.102670000000     0.029982   
H47      H      0.369320000000     0.742040000000     0.077460000000     0.0360458  
H48      H      0.386250000000     0.773160000000     0.047480000000     0.0530397  
H49      H      0.395460000000     0.799480000000     0.983370000000     0.0566014  
H50      H      0.410140000000     0.774580000000     0.951930000000     0.0385932  
H51      H      0.308670000000     0.853870000000     0.931330000000     0.0298901  
H52      H      0.293640000000     0.880110000000     0.962690000000     0.0532658  
H53      H      0.324990000000     0.923790000000     0.989960000000     0.0600497  
H54      H      0.296940000000     0.940700000000     0.020560000000     0.0439701  
H55      H      0.305230000000     0.801420000000     0.035510000000     0.0328028  
H56      H      0.333470000000     0.783690000000     0.004940000000     0.0547031  
H57      H      0.399290000000     0.929240000000     0.787280000000     0.0617673  
H58      H      0.427620000000     0.959430000000     0.258430000000     0.0437758  
H59      H      0.480300000000     0.830700000000     0.245420000000     0.0338905  
H60      H      0.452730000000     0.799800000000     0.274030000000     0.0552558  
H61      H      0.386900000000     0.781500000000     0.290410000000     0.0529838  
H62      H      0.372050000000     0.749020000000     0.820580000000     0.0355448  
H63      H      0.416630000000     0.868290000000     0.847360000000     0.0277014  
H64      H      0.432070000000     0.901790000000     0.817240000000     0.0536813  
H65      H      0.509270000000     0.540770000000     0.198390000000     0.0559575  
H66      H      0.565200000000     0.492340000000     0.209390000000     0.0348372  
H67      H      0.632010000000     0.512450000000     0.158550000000     0.0368841  
H68      H      0.576540000000     0.560650000000     0.147060000000     0.0556841  
H69      H      0.546040000000     0.634850000000     0.153230000000     0.055219   
H70      H      0.490720000000     0.685390000000     0.143470000000     0.0351728  
H71      H      0.398880000000     0.594730000000     0.165040000000     0.0353001  
H72      H      0.453500000000     0.543100000000     0.174850000000     0.0557063  
H73      H      0.483300000000     0.269050000000     0.233670000000     0.0573953  
H74      H      0.422890000000     0.230410000000     0.245970000000     0.0364094  
H75      H      0.500300000000     0.122450000000     0.265150000000     0.0363823  
H76      H      0.562120000000     0.161390000000     0.253220000000     0.0548822  
H77      H      0.601250000000     0.240200000000     0.258820000000     0.0533524  
H78      H      0.654540000000     0.290760000000     0.246500000000     0.0356882  
H79      H      0.588850000000     0.298990000000     0.194890000000     0.0347227  
H80      H      0.535260000000     0.248930000000     0.206800000000     0.0574747  
H81      H      0.493530000000     0.572440000000     0.932990000000     0.0565351  
H82      H      0.435780000000     0.615630000000     0.920560000000     0.0357732  
H83      H      0.520390000000     0.695010000000     0.888180000000     0.0342618  
H84      H      0.579180000000     0.651670000000     0.900270000000     0.0519727  
H85      H      0.604560000000     0.568280000000     0.898720000000     0.0571457  
H86      H      0.657030000000     0.517270000000     0.911170000000     0.0376684  
H87      H      0.609810000000     0.538130000000     0.966150000000     0.0344131  
H88      H      0.556670000000     0.588790000000     0.954100000000     0.0556054  
H89      H      0.615200000000     0.218380000000     0.993120000000     0.0528785  
H90      H      0.668580000000     0.268370000000     0.980570000000     0.0374265  
H91      H      0.573960000000     0.358140000000     0.960830000000     0.03485    
H92      H      0.520230000000     0.309070000000     0.972990000000     0.0563764  
H93      H      0.496640000000     0.290750000000     0.004390000000     0.056437   
H94      H      0.439120000000     0.247370000000     0.016780000000     0.0360414  
H95      H      0.497300000000     0.125080000000     0.998780000000     0.0365768  
H96      H      0.555520000000     0.167800000000     0.985910000000     0.0569512  
H97      H      0.991070000000     0.067400000000     0.782270000000     0.0559785  
H98      H      0.938000000000     0.121220000000     0.773190000000     0.0356252  
H99      H      0.021160000000     0.230330000000     0.284850000000     0.0339205  
H100     H      0.074800000000     0.177260000000     0.294500000000     0.053111   
H101     H      0.122040000000     0.117040000000     0.283210000000     0.0524478  
H102     H      0.172620000000     0.062540000000     0.294640000000     0.0405217  
H103     H      0.075100000000     0.989590000000     0.821980000000     0.0349548  
H104     H      0.024070000000     0.043770000000     0.811140000000     0.0557734  
H105     H      0.640510000000     0.107770000000     0.261530000000     0.0543951  
H106     H      0.587440000000     0.055050000000     0.251210000000     0.0347532  
H107     H      0.618030000000     0.082890000000     0.194490000000     0.0351366  
H108     H      0.670670000000     0.136570000000     0.204300000000     0.0570923  
H109     H      0.738820000000     0.126780000000     0.218870000000     0.0566426  
H110     H      0.799150000000     0.168120000000     0.229590000000     0.0359289  
H111     H      0.726690000000     0.227340000000     0.273210000000     0.0344192  
H112     H      0.665200000000     0.186350000000     0.262720000000     0.0511825  
H113     H      0.825510000000     0.413970000000     0.848190000000     0.0554214  
H114     H      0.842180000000     0.390700000000     0.816620000000     0.0282209  
H115     H      0.885500000000     0.263490000000     0.836790000000     0.0358591  
H116     H      0.870880000000     0.285980000000     0.868300000000     0.05273    
H117     H      0.811360000000     0.294210000000     0.886490000000     0.0539852  
H118     H      0.781890000000     0.312570000000     0.916370000000     0.033146   
H119     H      0.815380000000     0.450960000000     0.909130000000     0.0413367  
H120     H      0.845870000000     0.433730000000     0.878980000000     0.0648389  
H121     H      0.071340000000     0.135490000000     0.033410000000     0.0515779  
H122     H      0.013410000000     0.183120000000     0.023800000000     0.032525   
H123     H      0.926460000000     0.088020000000     0.046170000000     0.0359374  
H124     H      0.983340000000     0.039520000000     0.055690000000     0.0562222  
H125     H      0.039940000000     0.038540000000     0.078470000000     0.0559098  
H126     H      0.095430000000     0.987610000000     0.087730000000     0.034804   
H127     H      0.158740000000     0.011070000000     0.036240000000     0.0382863  
H128     H      0.103550000000     0.061890000000     0.026460000000     0.0561806  
H129     H      0.718280000000     0.078340000000     0.980090000000     0.0571452  
H130     H      0.781870000000     0.112390000000     0.991450000000     0.036495   
H131     H      0.711250000000     0.199210000000     0.027090000000     0.0346416  
H132     H      0.646460000000     0.164540000000     0.016250000000     0.0524469  
H133     H      0.611420000000     0.084270000000     0.016600000000     0.0561163  
H134     H      0.554740000000     0.038450000000     0.004260000000     0.037642   
H135     H      0.598810000000     0.061170000000     0.948910000000     0.0359856  
H136     H      0.655740000000     0.106720000000     0.960780000000     0.0561716  
H137     H      0.878260000000     0.290770000000     0.117350000000     0.0545743  
H138     H      0.893330000000     0.258040000000     0.087340000000     0.0372464  
H139     H      0.813040000000     0.353640000000     0.060960000000     0.0326763  
H140     H      0.796500000000     0.387040000000     0.090920000000     0.0540669  
H141     H      0.816700000000     0.426580000000     0.118930000000     0.0581762  
H142     H      0.782890000000     0.447130000000     0.148010000000     0.0401256  
H143     H      0.785140000000     0.309410000000     0.165520000000     0.0346893  
H144     H      0.818350000000     0.287730000000     0.136740000000     0.0555579  
H145     H      0.706620000000     0.813200000000     0.199940000000     0.0561683  
H146     H      0.653300000000     0.865100000000     0.210660000000     0.0350811  
H147     H      0.590690000000     0.855360000000     0.158350000000     0.0363699  
H148     H      0.643890000000     0.803730000000     0.147060000000     0.05586    
H149     H      0.668970000000     0.726700000000     0.152370000000     0.055187   
H150     H      0.722060000000     0.672310000000     0.143450000000     0.0353347  
H151     H      0.816320000000     0.753530000000     0.168880000000     0.0354206  
H152     H      0.764250000000     0.808820000000     0.177760000000     0.0559639  
H153     H      0.077240000000     0.676930000000     0.137500000000     0.0550147  
H154     H      0.014410000000     0.640100000000     0.149110000000     0.0349158  
H155     H      0.941050000000     0.708920000000     0.108380000000     0.0357333  
H156     H      0.002560000000     0.746360000000     0.096650000000     0.0563399  
H157     H      0.066400000000     0.731970000000     0.079800000000     0.0539632  
H158     H      0.121900000000     0.780670000000     0.068690000000     0.0342663  
H159     H      0.165510000000     0.798810000000     0.124320000000     0.0392696  
H160     H      0.109780000000     0.751150000000     0.135980000000     0.0569228  
H161     H      0.829930000000     0.526120000000     0.033580000000     0.0555198  
H162     H      0.805620000000     0.505160000000     0.002830000000     0.0307622  
H163     H      0.737820000000     0.394370000000     0.025920000000     0.0388067  
H164     H      0.760770000000     0.414950000000     0.056900000000     0.053266   
H165     H      0.749160000000     0.477820000000     0.079240000000     0.0549399  
H166     H      0.769290000000     0.509520000000     0.109110000000     0.0334484  
H167     H      0.893820000000     0.529350000000     0.089130000000     0.0495694  
H168     H      0.874440000000     0.498790000000     0.059200000000     0.065004   
H169     H      0.732220000000     0.809440000000     0.921740000000     0.0558388  
H170     H      0.788120000000     0.760870000000     0.911430000000     0.036267   
H171     H      0.699690000000     0.661870000000     0.893710000000     0.0332437  
H172     H      0.642470000000     0.710440000000     0.903530000000     0.0522472  
H173     H      0.677350000000     0.855920000000     0.910250000000     0.0557448  
H174     H      0.623840000000     0.905200000000     0.922530000000     0.0353464  
H175     H      0.555830000000     0.791510000000     0.943000000000     0.0364838  
H176     H      0.609530000000     0.740990000000     0.931260000000     0.0550357  
H177     H      0.989510000000     0.787150000000     0.852560000000     0.0569465  
H178     H      0.928330000000     0.748930000000     0.864340000000     0.0364489  
H179     H      0.004030000000     0.639520000000     0.883470000000     0.0345562  
H180     H      0.066520000000     0.677640000000     0.871900000000     0.0514657  
H181     H      0.107090000000     0.751940000000     0.878540000000     0.0536453  
H182     H      0.162690000000     0.801440000000     0.867770000000     0.0363466  
H183     H      0.098440000000     0.821540000000     0.816350000000     0.0354571  
H184     H      0.042450000000     0.772510000000     0.826720000000     0.0568788  
H185     H      0.815130000000     0.432320000000     0.788340000000     0.0629214  
H186     H      0.789280000000     0.403680000000     0.258840000000     0.0461833  
H187     H      0.740390000000     0.533860000000     0.245440000000     0.0341658  
H188     H      0.765800000000     0.563450000000     0.274610000000     0.0548741  
H189     H      0.829950000000     0.580770000000     0.291000000000     0.0521255  
H190     H      0.845990000000     0.613230000000     0.820930000000     0.0350923  
H191     H      0.802850000000     0.494010000000     0.848270000000     0.0298515  
H192     H      0.786050000000     0.460300000000     0.818310000000     0.0548726  
H193     H      0.152840000000     0.539210000000     0.130260000000     0.0559351  
H194     H      0.103720000000     0.485560000000     0.117810000000     0.0355749  
H195     H      0.047000000000     0.588790000000     0.084930000000     0.0355932  
H196     H      0.095310000000     0.643850000000     0.097350000000     0.0543805  
H197     H      0.164560000000     0.667170000000     0.096220000000     0.0565945  
H198     H      0.222330000000     0.713370000000     0.106260000000     0.0398132  
H199     H      0.224110000000     0.646200000000     0.158820000000     0.0345968  
H200     H      0.164700000000     0.600780000000     0.149650000000     0.0544922  
H201     H      0.210840000000     0.301990000000     0.020000000000     0.055625   
H202     H      0.268510000000     0.252460000000     0.012780000000     0.0356509  
H203     H      0.204970000000     0.142050000000     0.038460000000     0.0351143  
H204     H      0.147390000000     0.191180000000     0.046840000000     0.0535559  
H205     H      0.089740000000     0.236200000000     0.038470000000     0.0531258  
H206     H      0.037780000000     0.288270000000     0.050580000000     0.039924   
H207     H      0.131390000000     0.389770000000     0.057060000000     0.0354822  
H208     H      0.184170000000     0.338510000000     0.045970000000     0.0558771  
H209     H      0.935570000000     0.317640000000     0.158830000000     0.0560352  
H210     H      0.950910000000     0.331500000000     0.126410000000     0.0327232  
H211     H      0.899150000000     0.464010000000     0.130690000000     0.0416593  
H212     H      0.882860000000     0.450830000000     0.163410000000     0.0673479  
H213     H      0.969790000000     0.353950000000     0.187260000000     0.0571197  
H214     H      0.962160000000     0.331980000000     0.219470000000     0.0351226  
H215     H      0.835220000000     0.376820000000     0.219310000000     0.0442281  
H216     H      0.842180000000     0.399910000000     0.186870000000     0.063236   
H217     H      0.887720000000     0.428890000000     0.988050000000     0.0592246  
H218     H      0.914610000000     0.405900000000     0.018330000000     0.0433048  
H219     H      0.933570000000     0.544020000000     0.033110000000     0.0335981  
H220     H      0.907110000000     0.567870000000     0.003230000000     0.055323   
H221     H      0.841620000000     0.568260000000     0.984780000000     0.055394   
H222     H      0.826750000000     0.599410000000     0.954430000000     0.0368181  
H223     H      0.903930000000     0.499560000000     0.928800000000     0.029104   
H224     H      0.919110000000     0.466820000000     0.959160000000     0.0521547  
H225     H      0.185730000000     0.568880000000     0.833080000000     0.0566591  
H226     H      0.129300000000     0.519760000000     0.823490000000     0.034981   
H227     H      0.058040000000     0.558290000000     0.871250000000     0.0362959  
H228     H      0.114290000000     0.607720000000     0.881340000000     0.0530722  
H229     H      0.156730000000     0.677340000000     0.872860000000     0.0515563  
H230     H      0.218150000000     0.719030000000     0.883190000000     0.0346442  
H231     H      0.295910000000     0.606210000000     0.869910000000     0.0362284  
H232     H      0.235710000000     0.564050000000     0.859570000000     0.0565328  
H233     H      0.141330000000     0.197360000000     0.278720000000     0.0495492  
H234     H      0.198050000000     0.149650000000     0.267570000000     0.0321202  
H235     H      0.287160000000     0.236370000000     0.793610000000     0.0360604  
H236     H      0.231610000000     0.284150000000     0.804990000000     0.0561105  
H237     H      0.175930000000     0.279280000000     0.828130000000     0.0558221  
H238     H      0.123330000000     0.330470000000     0.840040000000     0.0347441  
H239     H      0.057670000000     0.324130000000     0.288390000000     0.0395425  
H240     H      0.110110000000     0.273090000000     0.275930000000     0.0554989  
H241     H      0.908840000000     0.421290000000     0.925080000000     0.0539271  
H242     H      0.933220000000     0.448870000000     0.895110000000     0.0406111  
H243     H      0.951110000000     0.313300000000     0.876470000000     0.0329434  
H244     H      0.926970000000     0.284950000000     0.906140000000     0.0542965  
H245     H      0.864770000000     0.280010000000     0.925610000000     0.0535711  
H246     H      0.849380000000     0.247490000000     0.955650000000     0.0366134  
H247     H      0.921840000000     0.349560000000     0.982470000000     0.0311284  
H248     H      0.938310000000     0.382900000000     0.952450000000     0.0528142  
H249     H      0.837080000000     0.560460000000     0.244370000000     0.053737   
H250     H      0.827530000000     0.588720000000     0.213090000000     0.0359026  
H251     H      0.909400000000     0.486950000000     0.191880000000     0.0299451  
H252     H      0.919340000000     0.457490000000     0.223040000000     0.0589731  
H253     H      0.885850000000     0.421720000000     0.250540000000     0.0637387  
H254     H      0.913660000000     0.400570000000     0.280710000000     0.0494827  
H255     H      0.924170000000     0.539540000000     0.795740000000     0.0346173  
H256     H      0.896800000000     0.561700000000     0.265720000000     0.054225   
H257     H      0.330530000000     0.915970000000     0.665180000000     0.0617099  
H258     H      0.310510000000     0.888400000000     0.634580000000     0.0503709  
H259     H      0.278710000000     0.022430000000     0.617860000000     0.0343176  
H260     H      0.298520000000     0.050900000000     0.648130000000     0.0542166  
H261     H      0.358900000000     0.060110000000     0.669640000000     0.0545838  
H262     H      0.366850000000     0.090350000000     0.700640000000     0.0367379  
H263     H      0.294180000000     0.982170000000     0.722950000000     0.0272978  
H264     H      0.286630000000     0.950240000000     0.691920000000     0.0540102  
H265     H      0.333570000000     0.075880000000     0.421930000000     0.0533657  
H266     H      0.351300000000     0.105850000000     0.452140000000     0.036444   
H267     H      0.298450000000     0.990000000000     0.478520000000     0.0286334  
H268     H      0.281580000000     0.957970000000     0.448180000000     0.053314   
H269     H      0.318020000000     0.931510000000     0.416980000000     0.0588882  
H270     H      0.295120000000     0.906950000000     0.386280000000     0.0420748  
H271     H      0.239660000000     0.036090000000     0.376660000000     0.0324548  
H272     H      0.262600000000     0.061620000000     0.406910000000     0.0552456  
H273     H      0.418740000000     0.079530000000     0.634670000000     0.0545376  
H274     H      0.450990000000     0.059400000000     0.663830000000     0.0337506  
H275     H      0.430700000000     0.919610000000     0.652520000000     0.0393544  
H276     H      0.397730000000     0.938640000000     0.623150000000     0.0577688  
H277     H      0.419220000000     0.967690000000     0.593100000000     0.0529962  
H278     H      0.399710000000     0.994120000000     0.562300000000     0.0295503  
H279     H      0.337910000000     0.107860000000     0.586390000000     0.0356027  
H280     H      0.355540000000     0.081780000000     0.617210000000     0.0523792  
H281     H      0.384520000000     0.916520000000     0.369770000000     0.0648866  
H282     H      0.412560000000     0.899370000000     0.400350000000     0.0433825  
H283     H      0.408920000000     0.039170000000     0.414740000000     0.0329435  
H284     H      0.380660000000     0.057330000000     0.384380000000     0.0543619  
H285     H      0.320610000000     0.046600000000     0.362750000000     0.0566328  
H286     H      0.307320000000     0.071700000000     0.331330000000     0.0394202  
H287     H      0.403950000000     0.985340000000     0.810890000000     0.027365   
H288     H      0.416900000000     0.958100000000     0.342270000000     0.053684   
H289     H      0.288620000000     0.892960000000     0.718160000000     0.0545669  
H290     H      0.295720000000     0.861600000000     0.687050000000     0.0287215  
H291     H      0.399750000000     0.782380000000     0.705030000000     0.0372754  
H292     H      0.392280000000     0.811810000000     0.736340000000     0.0560579  
H293     H      0.326820000000     0.799420000000     0.759070000000     0.0551416  
H294     H      0.297930000000     0.820180000000     0.289120000000     0.0341354  
H295     H      0.304590000000     0.959700000000     0.774440000000     0.0474598  
H296     H      0.333510000000     0.939760000000     0.744200000000     0.065335   
H297     H      0.445720000000     0.798610000000     0.531910000000     0.0540798  
H298     H      0.468850000000     0.826550000000     0.502220000000     0.0330571  
H299     H      0.406270000000     0.951750000000     0.511910000000     0.0442665  
H300     H      0.381550000000     0.924350000000     0.541850000000     0.0619183  
H301     H      0.402000000000     0.903970000000     0.572700000000     0.0530747  
H302     H      0.382890000000     0.871710000000     0.602670000000     0.0299759  
H303     H      0.369310000000     0.742040000000     0.577470000000     0.0360446  
H304     H      0.386250000000     0.773160000000     0.547480000000     0.0529867  
H305     H      0.395460000000     0.799480000000     0.483370000000     0.0567745  
H306     H      0.410150000000     0.774580000000     0.451930000000     0.0386498  
H307     H      0.308670000000     0.853870000000     0.431330000000     0.0299081  
H308     H      0.293640000000     0.880110000000     0.462690000000     0.0532997  
H309     H      0.324990000000     0.923790000000     0.489960000000     0.0600002  
H310     H      0.296940000000     0.940690000000     0.520560000000     0.0439959  
H311     H      0.305230000000     0.801420000000     0.535510000000     0.0327306  
H312     H      0.333460000000     0.783690000000     0.504940000000     0.0546941  
H313     H      0.399300000000     0.929240000000     0.287280000000     0.0617785  
H314     H      0.427620000000     0.959430000000     0.758430000000     0.0437789  
H315     H      0.480300000000     0.830700000000     0.745420000000     0.0338903  
H316     H      0.452730000000     0.799800000000     0.774030000000     0.0552655  
H317     H      0.386910000000     0.781500000000     0.790410000000     0.052991   
H318     H      0.372050000000     0.749030000000     0.320580000000     0.0355386  
H319     H      0.416640000000     0.868290000000     0.347360000000     0.027706   
H320     H      0.432080000000     0.901790000000     0.317240000000     0.0536612  
H321     H      0.509270000000     0.540770000000     0.698400000000     0.0559239  
H322     H      0.565190000000     0.492340000000     0.709390000000     0.0348338  
H323     H      0.632000000000     0.512450000000     0.658550000000     0.0368777  
H324     H      0.576530000000     0.560650000000     0.647060000000     0.0556709  
H325     H      0.546030000000     0.634850000000     0.653230000000     0.0552255  
H326     H      0.490710000000     0.685390000000     0.643470000000     0.0351536  
H327     H      0.398880000000     0.594730000000     0.665040000000     0.0352936  
H328     H      0.453500000000     0.543110000000     0.674850000000     0.0557375  
H329     H      0.483300000000     0.269050000000     0.733670000000     0.0574015  
H330     H      0.422890000000     0.230410000000     0.745960000000     0.0364154  
H331     H      0.500300000000     0.122450000000     0.765150000000     0.0363837  
H332     H      0.562120000000     0.161390000000     0.753220000000     0.0548864  
H333     H      0.601250000000     0.240200000000     0.758820000000     0.0533657  
H334     H      0.654530000000     0.290760000000     0.746500000000     0.0356821  
H335     H      0.588850000000     0.298990000000     0.694880000000     0.0347264  
H336     H      0.535260000000     0.248930000000     0.706800000000     0.0574776  
H337     H      0.493530000000     0.572440000000     0.432990000000     0.0565767  
H338     H      0.435780000000     0.615630000000     0.420560000000     0.0358199  
H339     H      0.520390000000     0.695010000000     0.388180000000     0.0342592  
H340     H      0.579180000000     0.651670000000     0.400270000000     0.0519742  
H341     H      0.604560000000     0.568270000000     0.398720000000     0.0571512  
H342     H      0.657020000000     0.517270000000     0.411170000000     0.037657   
H343     H      0.609810000000     0.538130000000     0.466150000000     0.0344859  
H344     H      0.556670000000     0.588790000000     0.454100000000     0.0556887  
H345     H      0.615200000000     0.218380000000     0.493120000000     0.0530029  
H346     H      0.668580000000     0.268370000000     0.480570000000     0.037509   
H347     H      0.573960000000     0.358130000000     0.460820000000     0.0348927  
H348     H      0.520230000000     0.309060000000     0.472980000000     0.056495   
H349     H      0.496640000000     0.290750000000     0.504390000000     0.0563705  
H350     H      0.439120000000     0.247360000000     0.516780000000     0.0359704  
H351     H      0.497300000000     0.125070000000     0.498780000000     0.0373875  
H352     H      0.555520000000     0.167790000000     0.485910000000     0.0568001  
H353     H      0.991070000000     0.067400000000     0.282270000000     0.0559777  
H354     H      0.938000000000     0.121220000000     0.273190000000     0.0356219  
H355     H      0.021160000000     0.230330000000     0.784850000000     0.0339213  
H356     H      0.074800000000     0.177260000000     0.794500000000     0.0530837  
H357     H      0.122040000000     0.117040000000     0.783210000000     0.0524416  
H358     H      0.172620000000     0.062540000000     0.794640000000     0.0405439  
H359     H      0.075100000000     0.989590000000     0.321970000000     0.0349624  
H360     H      0.024070000000     0.043770000000     0.311140000000     0.0557702  
H361     H      0.640510000000     0.107770000000     0.761530000000     0.0543979  
H362     H      0.587430000000     0.055060000000     0.751210000000     0.0347601  
H363     H      0.618030000000     0.082890000000     0.694490000000     0.0351456  
H364     H      0.670680000000     0.136570000000     0.704300000000     0.0570737  
H365     H      0.738820000000     0.126770000000     0.718870000000     0.0566304  
H366     H      0.799150000000     0.168110000000     0.729590000000     0.0359267  
H367     H      0.726690000000     0.227340000000     0.773210000000     0.0344302  
H368     H      0.665200000000     0.186350000000     0.762720000000     0.0511792  
H369     H      0.825510000000     0.413970000000     0.348190000000     0.0554101  
H370     H      0.842180000000     0.390700000000     0.316620000000     0.0282178  
H371     H      0.885500000000     0.263490000000     0.336790000000     0.0358591  
H372     H      0.870880000000     0.285980000000     0.368300000000     0.0527326  
H373     H      0.811370000000     0.294200000000     0.386490000000     0.0539895  
H374     H      0.781890000000     0.312570000000     0.416360000000     0.0331387  
H375     H      0.815370000000     0.450950000000     0.409130000000     0.0413322  
H376     H      0.845870000000     0.433730000000     0.378980000000     0.0648355  
H377     H      0.071330000000     0.135490000000     0.533410000000     0.0515525  
H378     H      0.013410000000     0.183110000000     0.523800000000     0.0324709  
H379     H      0.926460000000     0.088030000000     0.546170000000     0.0359047  
H380     H      0.983340000000     0.039520000000     0.555700000000     0.0561622  
H381     H      0.039940000000     0.038550000000     0.578470000000     0.0559     
H382     H      0.095440000000     0.987610000000     0.587730000000     0.0348145  
H383     H      0.158740000000     0.011070000000     0.536240000000     0.0382345  
H384     H      0.103540000000     0.061890000000     0.526460000000     0.0561055  
H385     H      0.718280000000     0.078350000000     0.480090000000     0.057284   
H386     H      0.781870000000     0.112390000000     0.491450000000     0.036501   
H387     H      0.711250000000     0.199210000000     0.527090000000     0.0345177  
H388     H      0.646460000000     0.164540000000     0.516250000000     0.0524896  
H389     H      0.611420000000     0.084270000000     0.516600000000     0.0565434  
H390     H      0.554750000000     0.038450000000     0.504260000000     0.0367468  
H391     H      0.598810000000     0.061170000000     0.448910000000     0.0359025  
H392     H      0.655740000000     0.106730000000     0.460780000000     0.0563198  
H393     H      0.878260000000     0.290780000000     0.617350000000     0.0545998  
H394     H      0.893340000000     0.258050000000     0.587340000000     0.0372395  
H395     H      0.813040000000     0.353640000000     0.560960000000     0.0326724  
H396     H      0.796500000000     0.387040000000     0.590920000000     0.0540555  
H397     H      0.816690000000     0.426590000000     0.618930000000     0.0581595  
H398     H      0.782890000000     0.447140000000     0.648010000000     0.040135   
H399     H      0.785140000000     0.309410000000     0.665520000000     0.0346886  
H400     H      0.818350000000     0.287730000000     0.636740000000     0.0555516  
H401     H      0.706630000000     0.813200000000     0.699930000000     0.0561883  
H402     H      0.653300000000     0.865100000000     0.710660000000     0.0350944  
H403     H      0.590690000000     0.855360000000     0.658350000000     0.0363643  
H404     H      0.643880000000     0.803730000000     0.647060000000     0.055912   
H405     H      0.668960000000     0.726690000000     0.652370000000     0.0551519  
H406     H      0.722060000000     0.672300000000     0.643450000000     0.0353379  
H407     H      0.816320000000     0.753530000000     0.668880000000     0.0354227  
H408     H      0.764250000000     0.808820000000     0.677760000000     0.0559554  
H409     H      0.077230000000     0.676930000000     0.637500000000     0.055043   
H410     H      0.014400000000     0.640090000000     0.649110000000     0.0349272  
H411     H      0.941050000000     0.708910000000     0.608370000000     0.0357293  
H412     H      0.002560000000     0.746360000000     0.596650000000     0.0562935  
H413     H      0.066400000000     0.731970000000     0.579800000000     0.0539482  
H414     H      0.121890000000     0.780660000000     0.568690000000     0.0342083  
H415     H      0.165500000000     0.798810000000     0.624320000000     0.0392721  
H416     H      0.109770000000     0.751150000000     0.635980000000     0.0569259  
H417     H      0.829930000000     0.526110000000     0.533580000000     0.0554816  
H418     H      0.805630000000     0.505140000000     0.502830000000     0.0304938  
H419     H      0.737800000000     0.394360000000     0.525920000000     0.0386496  
H420     H      0.760760000000     0.414950000000     0.556900000000     0.0532622  
H421     H      0.749150000000     0.477820000000     0.579230000000     0.0549068  
H422     H      0.769280000000     0.509530000000     0.609100000000     0.03343    
H423     H      0.893810000000     0.529330000000     0.589140000000     0.0495675  
H424     H      0.874430000000     0.498770000000     0.559210000000     0.0650457  
H425     H      0.732230000000     0.809430000000     0.421750000000     0.0559145  
H426     H      0.788120000000     0.760870000000     0.411430000000     0.0362678  
H427     H      0.699690000000     0.661870000000     0.393710000000     0.0332453  
H428     H      0.642470000000     0.710440000000     0.403530000000     0.0522209  
H429     H      0.677360000000     0.855920000000     0.410250000000     0.0557301  
H430     H      0.623850000000     0.905200000000     0.422530000000     0.0353475  
H431     H      0.555830000000     0.791510000000     0.443000000000     0.0365418  
H432     H      0.609530000000     0.740990000000     0.431260000000     0.0550347  
H433     H      0.989510000000     0.787150000000     0.352560000000     0.0569448  
H434     H      0.928330000000     0.748930000000     0.364340000000     0.036482   
H435     H      0.004030000000     0.639520000000     0.383470000000     0.0345545  
H436     H      0.066520000000     0.677640000000     0.371900000000     0.0514913  
H437     H      0.107090000000     0.751940000000     0.378540000000     0.0536695  
H438     H      0.162690000000     0.801440000000     0.367770000000     0.0363574  
H439     H      0.098440000000     0.821540000000     0.316350000000     0.0354545  
H440     H      0.042450000000     0.772510000000     0.326720000000     0.0568742  
H441     H      0.815130000000     0.432320000000     0.288340000000     0.062927   
H442     H      0.789280000000     0.403680000000     0.758840000000     0.0462056  
H443     H      0.740390000000     0.533860000000     0.745440000000     0.0341773  
H444     H      0.765800000000     0.563450000000     0.774610000000     0.0548734  
H445     H      0.829950000000     0.580770000000     0.791000000000     0.0521389  
H446     H      0.845990000000     0.613230000000     0.320930000000     0.0351146  
H447     H      0.802850000000     0.494010000000     0.348270000000     0.029843   
H448     H      0.786050000000     0.460300000000     0.318310000000     0.0548766  
H449     H      0.152840000000     0.539210000000     0.630260000000     0.0559304  
H450     H      0.103720000000     0.485560000000     0.617810000000     0.0355802  
H451     H      0.047000000000     0.588780000000     0.584930000000     0.0355797  
H452     H      0.095310000000     0.643850000000     0.597350000000     0.0543422  
H453     H      0.164560000000     0.667170000000     0.596220000000     0.0565768  
H454     H      0.222330000000     0.713370000000     0.606260000000     0.0398079  
H455     H      0.224110000000     0.646190000000     0.658820000000     0.0345908  
H456     H      0.164700000000     0.600770000000     0.649650000000     0.0544808  
H457     H      0.210840000000     0.301980000000     0.520000000000     0.0555881  
H458     H      0.268510000000     0.252450000000     0.512780000000     0.0355615  
H459     H      0.204960000000     0.142050000000     0.538460000000     0.0350892  
H460     H      0.147390000000     0.191180000000     0.546840000000     0.0535449  
H461     H      0.089740000000     0.236200000000     0.538470000000     0.0531042  
H462     H      0.037780000000     0.288260000000     0.550580000000     0.0398916  
H463     H      0.131390000000     0.389760000000     0.557060000000     0.0354588  
H464     H      0.184180000000     0.338510000000     0.545970000000     0.0558152  
H465     H      0.935580000000     0.317640000000     0.658840000000     0.0560195  
H466     H      0.950910000000     0.331500000000     0.626420000000     0.0326978  
H467     H      0.899150000000     0.464000000000     0.630690000000     0.0416455  
H468     H      0.882860000000     0.450820000000     0.663410000000     0.0673671  
H469     H      0.969790000000     0.353960000000     0.687260000000     0.0571267  
H470     H      0.962160000000     0.331990000000     0.719470000000     0.0351345  
H471     H      0.835210000000     0.376810000000     0.719310000000     0.0442492  
H472     H      0.842170000000     0.399900000000     0.686870000000     0.0632296  
H473     H      0.887730000000     0.428880000000     0.488050000000     0.059164   
H474     H      0.914620000000     0.405890000000     0.518330000000     0.0433575  
H475     H      0.933570000000     0.544020000000     0.533110000000     0.033498   
H476     H      0.907110000000     0.567870000000     0.503230000000     0.0552746  
H477     H      0.841620000000     0.568250000000     0.484780000000     0.0555847  
H478     H      0.826750000000     0.599400000000     0.454430000000     0.0368688  
H479     H      0.903940000000     0.499560000000     0.428800000000     0.0291278  
H480     H      0.919120000000     0.466820000000     0.459160000000     0.0521759  
H481     H      0.185740000000     0.568870000000     0.333080000000     0.0566214  
H482     H      0.129300000000     0.519760000000     0.323490000000     0.0349885  
H483     H      0.058040000000     0.558290000000     0.371260000000     0.0363263  
H484     H      0.114290000000     0.607720000000     0.381340000000     0.053077   
H485     H      0.156730000000     0.677340000000     0.372860000000     0.0515669  
H486     H      0.218150000000     0.719030000000     0.383190000000     0.0346607  
H487     H      0.295910000000     0.606210000000     0.369910000000     0.0362346  
H488     H      0.235710000000     0.564050000000     0.359570000000     0.0565442  
H489     H      0.141330000000     0.197350000000     0.778720000000     0.0495721  
H490     H      0.198040000000     0.149650000000     0.767570000000     0.032118   
H491     H      0.287160000000     0.236370000000     0.293610000000     0.0360383  
H492     H      0.231620000000     0.284150000000     0.305000000000     0.0560875  
H493     H      0.175930000000     0.279280000000     0.328140000000     0.0557899  
H494     H      0.123330000000     0.330470000000     0.340040000000     0.0347611  
H495     H      0.057670000000     0.324130000000     0.788380000000     0.0395244  
H496     H      0.110100000000     0.273090000000     0.775930000000     0.0555105  
H497     H      0.908830000000     0.421290000000     0.425080000000     0.0539661  
H498     H      0.933220000000     0.448870000000     0.395110000000     0.040636   
H499     H      0.951100000000     0.313300000000     0.376470000000     0.0329311  
H500     H      0.926970000000     0.284950000000     0.406140000000     0.0543307  
H501     H      0.864770000000     0.280010000000     0.425610000000     0.0535875  
H502     H      0.849380000000     0.247490000000     0.455650000000     0.0366456  
H503     H      0.921840000000     0.349560000000     0.482470000000     0.0312871  
H504     H      0.938310000000     0.382900000000     0.452450000000     0.05287    
H505     H      0.837080000000     0.560470000000     0.744370000000     0.0537262  
H506     H      0.827530000000     0.588720000000     0.713090000000     0.0359117  
H507     H      0.909400000000     0.486950000000     0.691880000000     0.0299824  
H508     H      0.919340000000     0.457490000000     0.723040000000     0.0589662  
H509     H      0.885840000000     0.421720000000     0.750540000000     0.0637605  
H510     H      0.913650000000     0.400570000000     0.780710000000     0.0494683  
H511     H      0.924170000000     0.539540000000     0.295740000000     0.0346182  
H512     H      0.896800000000     0.561700000000     0.765720000000     0.0542342  
N1       N      0.292140000000     0.953280000000     0.124230000000    -0.178551   
N2       N      0.331300000000     0.038250000000     0.214080000000    -0.179634   
N3       N      0.326090000000     0.050010000000     0.967510000000    -0.179168   
N4       N      0.265890000000     0.969800000000     0.879280000000    -0.179878   
N5       N      0.443970000000     0.988080000000     0.160080000000    -0.178741   
N6       N      0.368530000000     0.053490000000     0.072130000000    -0.178605   
N7       N      0.413800000000     0.968210000000     0.909530000000    -0.179663   
N8       N      0.355140000000     0.030820000000     0.818860000000    -0.178288   
N9       N      0.347780000000     0.819280000000     0.193870000000    -0.179366   
N10      N      0.297560000000     0.891230000000     0.283580000000    -0.179218   
N11      N      0.439220000000     0.891120000000     0.004910000000    -0.177841   
N12      N      0.375830000000     0.804430000000     0.092310000000    -0.178305   
N13      N      0.359750000000     0.811550000000     0.939450000000    -0.178266   
N14      N      0.298330000000     0.872100000000     0.030100000000    -0.178532   
N15      N      0.456680000000     0.897480000000     0.250060000000    -0.178953   
N16      N      0.393630000000     0.806190000000     0.836160000000    -0.179328   
N17      N      0.602630000000     0.498900000000     0.184790000000    -0.178089   
N18      N      0.440840000000     0.643970000000     0.153730000000    -0.178251   
N19      N      0.457150000000     0.173300000000     0.256190000000    -0.17793    
N20      N      0.624670000000     0.299710000000     0.220070000000    -0.178793   
N21      N      0.473920000000     0.658590000000     0.903550000000    -0.178195   
N22      N      0.636620000000     0.523350000000     0.939490000000    -0.178787   
N23      N      0.625130000000     0.317390000000     0.970240000000    -0.17791    
N24      N      0.463560000000     0.183230000000     0.008270000000    -0.178218   
N25      N      0.975520000000     0.179660000000     0.278580000000    -0.177513   
N26      N      0.127520000000     0.022040000000     0.809070000000    -0.177331   
N27      N      0.599810000000     0.064200000000     0.222140000000    -0.178721   
N28      N      0.767360000000     0.200490000000     0.252240000000    -0.178364   
N29      N      0.863570000000     0.324920000000     0.824390000000    -0.179213   
N30      N      0.795630000000     0.383190000000     0.914700000000    -0.17877    
N31      N      0.965810000000     0.139120000000     0.034360000000    -0.178324   
N32      N      0.130850000000     0.995360000000     0.062600000000    -0.17857    
N33      N      0.751150000000     0.158590000000     0.009940000000    -0.177828   
N34      N      0.573600000000     0.045290000000     0.975770000000    -0.178031   
N35      N      0.853010000000     0.302500000000     0.072110000000    -0.178218   
N36      N      0.780550000000     0.379540000000     0.158580000000    -0.179937   
N37      N      0.618160000000     0.863930000000     0.185300000000    -0.178872   
N38      N      0.772870000000     0.708670000000     0.155750000000    -0.178187   
N39      N      0.973230000000     0.671870000000     0.129620000000    -0.178595   
N40      N      0.146810000000     0.794390000000     0.095750000000    -0.178848   
N41      N      0.769970000000     0.448430000000     0.012150000000    -0.179051   
N42      N      0.832650000000     0.522700000000     0.101100000000    -0.179515   
N43      N      0.747990000000     0.707830000000     0.901840000000    -0.178121   
N44      N      0.586190000000     0.851980000000     0.933810000000    -0.177775   
N45      N      0.961710000000     0.691310000000     0.874620000000    -0.177812   
N46      N      0.133880000000     0.816110000000     0.841540000000    -0.178106   
N47      N      0.762420000000     0.466540000000     0.250180000000    -0.178928   
N48      N      0.824920000000     0.556210000000     0.836760000000    -0.179112   
N49      N      0.072060000000     0.533160000000     0.100350000000    -0.178014   
N50      N      0.228260000000     0.682050000000     0.133020000000    -0.178665   
N51      N      0.241300000000     0.193980000000     0.025460000000    -0.178257   
N52      N      0.080820000000     0.342710000000     0.054680000000    -0.177833   
N53      N      0.927450000000     0.399270000000     0.126400000000    -0.179944   
N54      N      0.897660000000     0.351070000000     0.221440000000    -0.179839   
N55      N      0.926660000000     0.473260000000     0.027750000000    -0.179042   
N56      N      0.864870000000     0.552100000000     0.939480000000    -0.178369   
N57      N      0.090070000000     0.534660000000     0.846910000000    -0.178345   
N58      N      0.261460000000     0.665820000000     0.877120000000    -0.177935   
N59      N      0.246600000000     0.189230000000     0.279980000000    -0.178101   
N60      N      0.087160000000     0.331630000000     0.814970000000    -0.17818    
N61      N      0.944070000000     0.383060000000     0.883690000000    -0.178838   
N62      N      0.885180000000     0.295720000000     0.971180000000    -0.178891   
N63      N      0.868460000000     0.540420000000     0.200290000000    -0.18018    
N64      N      0.921960000000     0.468580000000     0.290150000000    -0.178879   
N65      N      0.292140000000     0.953280000000     0.624230000000    -0.17856    
N66      N      0.331300000000     0.038250000000     0.714080000000    -0.179629   
N67      N      0.326090000000     0.050000000000     0.467510000000    -0.179117   
N68      N      0.265890000000     0.969800000000     0.379280000000    -0.179853   
N69      N      0.443970000000     0.988080000000     0.660080000000    -0.178732   
N70      N      0.368530000000     0.053490000000     0.572130000000    -0.178614   
N71      N      0.413810000000     0.968210000000     0.409530000000    -0.179667   
N72      N      0.355150000000     0.030810000000     0.318860000000    -0.178262   
N73      N      0.347780000000     0.819290000000     0.693870000000    -0.179334   
N74      N      0.297570000000     0.891240000000     0.783580000000    -0.179163   
N75      N      0.439220000000     0.891120000000     0.504910000000    -0.178181   
N76      N      0.375830000000     0.804430000000     0.592310000000    -0.178305   
N77      N      0.359750000000     0.811550000000     0.439450000000    -0.178255   
N78      N      0.298320000000     0.872100000000     0.530100000000    -0.178505   
N79      N      0.456680000000     0.897480000000     0.750060000000    -0.178978   
N80      N      0.393630000000     0.806190000000     0.336160000000    -0.179307   
N81      N      0.602620000000     0.498900000000     0.684790000000    -0.178057   
N82      N      0.440840000000     0.643970000000     0.653730000000    -0.178235   
N83      N      0.457150000000     0.173300000000     0.756190000000    -0.177882   
N84      N      0.624670000000     0.299710000000     0.720070000000    -0.178826   
N85      N      0.473920000000     0.658590000000     0.403550000000    -0.178176   
N86      N      0.636620000000     0.523350000000     0.439490000000    -0.178768   
N87      N      0.625130000000     0.317380000000     0.470240000000    -0.177927   
N88      N      0.463560000000     0.183230000000     0.508270000000    -0.178001   
N89      N      0.975520000000     0.179660000000     0.778580000000    -0.177512   
N90      N      0.127520000000     0.022040000000     0.309060000000    -0.1773     
N91      N      0.599810000000     0.064200000000     0.722140000000    -0.178709   
N92      N      0.767360000000     0.200490000000     0.752240000000    -0.17836    
N93      N      0.863580000000     0.324920000000     0.324390000000    -0.179206   
N94      N      0.795630000000     0.383190000000     0.414700000000    -0.178789   
N95      N      0.965810000000     0.139120000000     0.534360000000    -0.178323   
N96      N      0.130850000000     0.995350000000     0.562600000000    -0.178642   
N97      N      0.751150000000     0.158590000000     0.509940000000    -0.178255   
N98      N      0.573600000000     0.045290000000     0.475770000000    -0.178441   
N99      N      0.853010000000     0.302500000000     0.572110000000    -0.178234   
N100     N      0.780550000000     0.379540000000     0.658580000000    -0.179916   
N101     N      0.618160000000     0.863930000000     0.685300000000    -0.178836   
N102     N      0.772870000000     0.708660000000     0.655750000000    -0.178199   
N103     N      0.973230000000     0.671870000000     0.629620000000    -0.178551   
N104     N      0.146800000000     0.794390000000     0.595750000000    -0.178829   
N105     N      0.769970000000     0.448420000000     0.512150000000    -0.179416   
N106     N      0.832640000000     0.522690000000     0.601100000000    -0.179501   
N107     N      0.747990000000     0.707830000000     0.401850000000    -0.1781     
N108     N      0.586200000000     0.851980000000     0.433810000000    -0.177714   
N109     N      0.961710000000     0.691300000000     0.374630000000    -0.177864   
N110     N      0.133880000000     0.816110000000     0.341540000000    -0.178106   
N111     N      0.762420000000     0.466540000000     0.750170000000    -0.178996   
N112     N      0.824920000000     0.556210000000     0.336770000000    -0.179198   
N113     N      0.072060000000     0.533160000000     0.600350000000    -0.17799    
N114     N      0.228260000000     0.682040000000     0.633020000000    -0.178667   
N115     N      0.241300000000     0.193980000000     0.525460000000    -0.178282   
N116     N      0.080820000000     0.342700000000     0.554680000000    -0.177874   
N117     N      0.927450000000     0.399270000000     0.626410000000    -0.179894   
N118     N      0.897660000000     0.351070000000     0.721450000000    -0.179921   
N119     N      0.926660000000     0.473260000000     0.527750000000    -0.179028   
N120     N      0.864870000000     0.552100000000     0.439480000000    -0.178364   
N121     N      0.090070000000     0.534660000000     0.346910000000    -0.178299   
N122     N      0.261460000000     0.665820000000     0.377120000000    -0.17791    
N123     N      0.246600000000     0.189230000000     0.779970000000    -0.178096   
N124     N      0.087170000000     0.331630000000     0.314970000000    -0.178149   
N125     N      0.944070000000     0.383050000000     0.383690000000    -0.178822   
N126     N      0.885180000000     0.295720000000     0.471180000000    -0.178967   
N127     N      0.868450000000     0.540420000000     0.700290000000    -0.180085   
N128     N      0.921960000000     0.468580000000     0.790150000000    -0.17891    
O1       O      0.029870000000     0.377850000000     0.311380000000    -0.241307   
O2       O      0.963260000000     0.440220000000     0.863780000000    -0.245013   
O3       O      0.951010000000     0.416040000000     0.309780000000    -0.244634   
O4       O      0.064120000000     0.478110000000     0.828220000000    -0.249802   
O5       O      0.029030000000     0.495770000000     0.852600000000    -0.241774   
O6       O      0.962050000000     0.485830000000     0.815720000000    -0.251031   
O7       O      0.061750000000     0.379380000000     0.837660000000    -0.247464   
O8       O      0.974800000000     0.372220000000     0.855080000000    -0.250867   
O9       O      0.060710000000     0.412390000000     0.065590000000    -0.24875    
O10      O      0.966350000000     0.381750000000     0.100500000000    -0.251081   
O11      O      0.948810000000     0.419510000000     0.048740000000    -0.246946   
O12      O      0.019010000000     0.511920000000     0.080470000000    -0.24051    
O13      O      0.047320000000     0.460590000000     0.097420000000    -0.24631    
O14      O      0.961190000000     0.488880000000     0.055040000000    -0.249845   
O15      O      0.014160000000     0.360300000000     0.064630000000    -0.239558   
O16      O      0.939320000000     0.447710000000     0.101870000000    -0.255916   
O17      O      0.818050000000     0.691670000000     0.899030000000    -0.242588   
O18      O      0.845640000000     0.616250000000     0.854620000000    -0.253403   
O19      O      0.839100000000     0.609330000000     0.921310000000    -0.252281   
O20      O      0.927110000000     0.629780000000     0.886980000000    -0.246347   
O21      O      0.890460000000     0.686420000000     0.878090000000    -0.243697   
O22      O      0.875490000000     0.558140000000     0.907750000000    -0.246553   
O23      O      0.774370000000     0.641180000000     0.889960000000    -0.248224   
O24      O      0.825950000000     0.556450000000     0.868940000000    -0.249391   
O25      O      0.845530000000     0.595400000000     0.180290000000    -0.253066   
O26      O      0.902530000000     0.658170000000     0.128660000000    -0.247921   
O27      O      0.839780000000     0.680290000000     0.157180000000    -0.245958   
O28      O      0.815650000000     0.555220000000     0.129280000000    -0.247689   
O29      O      0.878490000000     0.562430000000     0.119360000000    -0.249924   
O30      O      0.792770000000     0.639300000000     0.144160000000    -0.243251   
O31      O      0.885610000000     0.544280000000     0.169100000000    -0.256774   
O32      O      0.938440000000     0.622800000000     0.149250000000    -0.246911   
O33      O      0.822590000000     0.166320000000     0.009160000000    -0.243566   
O34      O      0.877840000000     0.243250000000     0.054770000000    -0.251495   
O35      O      0.858400000000     0.238360000000     0.988930000000    -0.251675   
O36      O      0.938920000000     0.204540000000     0.021720000000    -0.248525   
O37      O      0.895800000000     0.156910000000     0.033520000000    -0.24571    
O38      O      0.892840000000     0.290020000000     0.003050000000    -0.246261   
O39      O      0.787900000000     0.214040000000     0.025510000000    -0.247306   
O40      O      0.839770000000     0.292340000000     0.040810000000    -0.244985   
O41      O      0.877860000000     0.268960000000     0.803300000000    -0.253349   
O42      O      0.837170000000     0.218510000000     0.250300000000    -0.246864   
O43      O      0.907510000000     0.196690000000     0.770710000000    -0.243703   
O44      O      0.920140000000     0.307300000000     0.245900000000    -0.250285   
O45      O      0.856400000000     0.329540000000     0.246200000000    -0.252607   
O46      O      0.949550000000     0.251990000000     0.275650000000    -0.241131   
O47      O      0.861410000000     0.333900000000     0.292430000000    -0.256907   
O48      O      0.801250000000     0.249770000000     0.271990000000    -0.249371   
O49      O      0.685700000000     0.467470000000     0.935350000000    -0.246729   
O50      O      0.729780000000     0.405720000000     0.992470000000    -0.24981    
O51      O      0.771260000000     0.433870000000     0.936470000000    -0.245863   
O52      O      0.645270000000     0.386660000000     0.958910000000    -0.24926    
O53      O      0.693530000000     0.341490000000     0.968120000000    -0.237736   
O54      O      0.750870000000     0.365170000000     0.938660000000    -0.249259   
O55      O      0.666230000000     0.482080000000     0.963290000000    -0.248426   
O56      O      0.762520000000     0.461800000000     0.980670000000    -0.252534   
O57      O      0.745720000000     0.430230000000     0.177260000000    -0.246451   
O58      O      0.647020000000     0.351820000000     0.198460000000    -0.250183   
O59      O      0.665510000000     0.462050000000     0.181110000000    -0.243221   
O60      O      0.721080000000     0.472970000000     0.224140000000    -0.251505   
O61      O      0.748370000000     0.408440000000     0.229900000000    -0.247753   
O62      O      0.632960000000     0.453140000000     0.206990000000    -0.247477   
O63      O      0.742520000000     0.360210000000     0.184580000000    -0.252337   
O64      O      0.678070000000     0.350400000000     0.224880000000    -0.244372   
O65      O      0.403840000000     0.675750000000     0.902450000000    -0.242954   
O66      O      0.374630000000     0.746000000000     0.854370000000    -0.253206   
O67      O      0.392270000000     0.762490000000     0.919460000000    -0.251186   
O68      O      0.294560000000     0.730740000000     0.887030000000    -0.245828   
O69      O      0.332610000000     0.673350000000     0.880330000000    -0.24482    
O70      O      0.340460000000     0.800300000000     0.908800000000    -0.247646   
O71      O      0.446020000000     0.718580000000     0.887230000000    -0.246908   
O72      O      0.393130000000     0.806680000000     0.868340000000    -0.253083   
O73      O      0.371890000000     0.666750000000     0.152880000000    -0.245524   
O74      O      0.362260000000     0.743350000000     0.110990000000    -0.247648   
O75      O      0.375140000000     0.767270000000     0.173580000000    -0.252582   
O76      O      0.285240000000     0.694720000000     0.151990000000    -0.246334   
O77      O      0.281530000000     0.731550000000     0.126420000000    -0.245635   
O78      O      0.321000000000     0.803900000000     0.164700000000    -0.253553   
O79      O      0.418370000000     0.712830000000     0.142720000000    -0.246547   
O80      O      0.364180000000     0.808600000000     0.124040000000    -0.249786   
O81      O      0.445190000000     0.945670000000     0.982130000000    -0.243466   
O82      O      0.524440000000     0.866140000000     0.949380000000    -0.23874    
O83      O      0.523130000000     0.990760000000     0.979860000000    -0.246342   
O84      O      0.447520000000     0.990120000000     0.936360000000    -0.251263   
O85      O      0.448400000000     0.920030000000     0.929280000000    -0.253429   
O86      O      0.543270000000     0.004760000000     0.951990000000    -0.242091   
O87      O      0.480280000000     0.884330000000     0.978800000000    -0.245614   
O88      O      0.559590000000     0.922870000000     0.939460000000    -0.246151   
O89      O      0.553510000000     0.006380000000     0.227990000000    -0.246222   
O90      O      0.474180000000     0.936540000000     0.179880000000    -0.245945   
O91      O      0.472740000000     0.956700000000     0.230540000000    -0.24611    
O92      O      0.588640000000     0.909170000000     0.207850000000    -0.24944    
O93      O      0.557680000000     0.905060000000     0.181480000000    -0.24595    
O94      O      0.500410000000     0.892260000000     0.224740000000    -0.251185   
O95      O      0.570060000000     0.019400000000     0.199550000000    -0.248219   
O96      O      0.484620000000     0.006830000000     0.185310000000    -0.248747   
O97      O      0.425310000000     0.117680000000     0.011060000000    -0.245547   
O98      O      0.346650000000     0.110330000000     0.052800000000    -0.252141   
O99      O      0.348980000000     0.108280000000     0.985740000000    -0.253607   
O100     O      0.309810000000     0.183460000000     0.016650000000    -0.242825   
O101     O      0.275890000000     0.125780000000     0.026640000000    -0.246834   
O102     O      0.326360000000     0.049060000000     0.999680000000    -0.24966    
O103     O      0.396030000000     0.179770000000     0.019280000000    -0.243671   
O104     O      0.372100000000     0.050860000000     0.040010000000    -0.248538   
O105     O      0.316010000000     0.169400000000     0.779000000000    -0.242641   
O106     O      0.353340000000     0.094170000000     0.233730000000    -0.253858   
O107     O      0.325560000000     0.081750000000     0.798800000000    -0.251125   
O108     O      0.423350000000     0.110340000000     0.267750000000    -0.244911   
O109     O      0.385930000000     0.166590000000     0.258940000000    -0.242783   
O110     O      0.374250000000     0.039490000000     0.287990000000    -0.251823   
O111     O      0.272010000000     0.124370000000     0.266120000000    -0.246504   
O112     O      0.320560000000     0.038550000000     0.245970000000    -0.255393   
O113     O      0.265000000000     0.942220000000     0.302900000000    -0.246024   
O114     O      0.159830000000     0.869460000000     0.821250000000    -0.244099   
O115     O      0.194500000000     0.993660000000     0.311370000000    -0.238847   
O116     O      0.228320000000     0.980050000000     0.852410000000    -0.25507    
O117     O      0.260350000000     0.917120000000     0.855880000000    -0.246076   
O118     O      0.145200000000     0.957410000000     0.825050000000    -0.24565    
O119     O      0.257650000000     0.872050000000     0.809040000000    -0.251044   
O120     O      0.189940000000     0.862300000000     0.847790000000    -0.243929   
O121     O      0.275090000000     0.895420000000     0.104250000000    -0.244149   
O122     O      0.191580000000     0.955860000000     0.057070000000    -0.242099   
O123     O      0.198100000000     0.847370000000     0.100760000000    -0.243001   
O124     O      0.266870000000     0.850500000000     0.057620000000    -0.248646   
O125     O      0.267440000000     0.920900000000     0.050780000000    -0.244818   
O126     O      0.175540000000     0.839360000000     0.072860000000    -0.249181   
O127     O      0.254230000000     0.962080000000     0.097360000000    -0.250826   
O128     O      0.160940000000     0.945460000000     0.083250000000    -0.249113   
O129     O      0.029870000000     0.377860000000     0.811380000000    -0.241335   
O130     O      0.963260000000     0.440220000000     0.363780000000    -0.245006   
O131     O      0.951000000000     0.416040000000     0.809790000000    -0.244582   
O132     O      0.064120000000     0.478110000000     0.328220000000    -0.249799   
O133     O      0.029030000000     0.495770000000     0.352600000000    -0.241761   
O134     O      0.962050000000     0.485830000000     0.315720000000    -0.2511     
O135     O      0.061750000000     0.379380000000     0.337660000000    -0.247409   
O136     O      0.974800000000     0.372220000000     0.355080000000    -0.250855   
O137     O      0.060710000000     0.412380000000     0.565590000000    -0.248763   
O138     O      0.966360000000     0.381740000000     0.600500000000    -0.251021   
O139     O      0.948810000000     0.419510000000     0.548740000000    -0.247012   
O140     O      0.019010000000     0.511920000000     0.580470000000    -0.240522   
O141     O      0.047320000000     0.460590000000     0.597420000000    -0.246408   
O142     O      0.961190000000     0.488880000000     0.555040000000    -0.249798   
O143     O      0.014160000000     0.360290000000     0.564630000000    -0.23948    
O144     O      0.939320000000     0.447700000000     0.601880000000    -0.25603    
O145     O      0.818050000000     0.691670000000     0.399030000000    -0.242641   
O146     O      0.845640000000     0.616250000000     0.354620000000    -0.253454   
O147     O      0.839090000000     0.609320000000     0.421310000000    -0.252194   
O148     O      0.927110000000     0.629780000000     0.386980000000    -0.24635    
O149     O      0.890460000000     0.686420000000     0.378090000000    -0.243715   
O150     O      0.875500000000     0.558140000000     0.407750000000    -0.246521   
O151     O      0.774380000000     0.641180000000     0.389960000000    -0.248239   
O152     O      0.825950000000     0.556450000000     0.368940000000    -0.249436   
O153     O      0.845530000000     0.595390000000     0.680290000000    -0.25322    
O154     O      0.902530000000     0.658170000000     0.628660000000    -0.247886   
O155     O      0.839780000000     0.680280000000     0.657180000000    -0.245868   
O156     O      0.815640000000     0.555210000000     0.629280000000    -0.247665   
O157     O      0.878490000000     0.562420000000     0.619360000000    -0.249832   
O158     O      0.792760000000     0.639300000000     0.644150000000    -0.243222   
O159     O      0.885610000000     0.544270000000     0.669100000000    -0.256939   
O160     O      0.938440000000     0.622790000000     0.649250000000    -0.246826   
O161     O      0.822590000000     0.166320000000     0.509160000000    -0.243815   
O162     O      0.877840000000     0.243260000000     0.554770000000    -0.251572   
O163     O      0.858400000000     0.238360000000     0.488930000000    -0.251512   
O164     O      0.938920000000     0.204540000000     0.521720000000    -0.248613   
O165     O      0.895800000000     0.156920000000     0.533520000000    -0.245784   
O166     O      0.892840000000     0.290020000000     0.503050000000    -0.246887   
O167     O      0.787900000000     0.214040000000     0.525510000000    -0.247398   
O168     O      0.839770000000     0.292340000000     0.540810000000    -0.245072   
O169     O      0.877860000000     0.268960000000     0.303300000000    -0.253347   
O170     O      0.837170000000     0.218510000000     0.750300000000    -0.246866   
O171     O      0.907510000000     0.196690000000     0.270710000000    -0.243704   
O172     O      0.920140000000     0.307300000000     0.745900000000    -0.250279   
O173     O      0.856400000000     0.329540000000     0.746200000000    -0.25272    
O174     O      0.949550000000     0.251990000000     0.775650000000    -0.241129   
O175     O      0.861410000000     0.333900000000     0.792430000000    -0.256905   
O176     O      0.801240000000     0.249770000000     0.771990000000    -0.249357   
O177     O      0.685700000000     0.467460000000     0.435350000000    -0.246646   
O178     O      0.729770000000     0.405720000000     0.492470000000    -0.249808   
O179     O      0.771250000000     0.433860000000     0.436470000000    -0.245939   
O180     O      0.645270000000     0.386650000000     0.458910000000    -0.249227   
O181     O      0.693530000000     0.341480000000     0.468120000000    -0.23759    
O182     O      0.750870000000     0.365170000000     0.438660000000    -0.249276   
O183     O      0.666230000000     0.482070000000     0.463290000000    -0.248299   
O184     O      0.762520000000     0.461790000000     0.480670000000    -0.252523   
O185     O      0.745720000000     0.430230000000     0.677260000000    -0.246552   
O186     O      0.647020000000     0.351820000000     0.698460000000    -0.250217   
O187     O      0.665510000000     0.462050000000     0.681110000000    -0.243206   
O188     O      0.721080000000     0.472970000000     0.724140000000    -0.251538   
O189     O      0.748370000000     0.408440000000     0.729900000000    -0.247793   
O190     O      0.632960000000     0.453140000000     0.706990000000    -0.247453   
O191     O      0.742520000000     0.360210000000     0.684580000000    -0.25234    
O192     O      0.678060000000     0.350400000000     0.724880000000    -0.24444    
O193     O      0.403840000000     0.675750000000     0.402450000000    -0.242929   
O194     O      0.374620000000     0.746000000000     0.354370000000    -0.253177   
O195     O      0.392270000000     0.762490000000     0.419460000000    -0.251166   
O196     O      0.294560000000     0.730740000000     0.387030000000    -0.245776   
O197     O      0.332620000000     0.673350000000     0.380330000000    -0.244719   
O198     O      0.340460000000     0.800300000000     0.408800000000    -0.247636   
O199     O      0.446020000000     0.718580000000     0.387230000000    -0.246913   
O200     O      0.393130000000     0.806680000000     0.368340000000    -0.253074   
O201     O      0.371880000000     0.666750000000     0.652880000000    -0.24543    
O202     O      0.362260000000     0.743350000000     0.610990000000    -0.247675   
O203     O      0.375140000000     0.767270000000     0.673580000000    -0.252554   
O204     O      0.285240000000     0.694710000000     0.651990000000    -0.246238   
O205     O      0.281530000000     0.731550000000     0.626420000000    -0.245577   
O206     O      0.320990000000     0.803900000000     0.664700000000    -0.253468   
O207     O      0.418370000000     0.712830000000     0.642720000000    -0.246593   
O208     O      0.364170000000     0.808600000000     0.624040000000    -0.24979    
O209     O      0.445190000000     0.945670000000     0.482130000000    -0.243464   
O210     O      0.524440000000     0.866140000000     0.449380000000    -0.238683   
O211     O      0.523140000000     0.990750000000     0.479860000000    -0.246299   
O212     O      0.447520000000     0.990120000000     0.436360000000    -0.251293   
O213     O      0.448400000000     0.920030000000     0.429280000000    -0.253483   
O214     O      0.543270000000     0.004760000000     0.451990000000    -0.241938   
O215     O      0.480280000000     0.884320000000     0.478810000000    -0.245633   
O216     O      0.559590000000     0.922870000000     0.439460000000    -0.246119   
O217     O      0.553510000000     0.006380000000     0.727990000000    -0.246224   
O218     O      0.474180000000     0.936540000000     0.679880000000    -0.245927   
O219     O      0.472740000000     0.956690000000     0.730540000000    -0.246186   
O220     O      0.588640000000     0.909180000000     0.707850000000    -0.2494     
O221     O      0.557670000000     0.905050000000     0.681480000000    -0.245887   
O222     O      0.500410000000     0.892260000000     0.724740000000    -0.251206   
O223     O      0.570060000000     0.019400000000     0.699550000000    -0.248232   
O224     O      0.484620000000     0.006830000000     0.685310000000    -0.248737   
O225     O      0.425310000000     0.117670000000     0.511060000000    -0.245715   
O226     O      0.346650000000     0.110330000000     0.552800000000    -0.252144   
O227     O      0.348980000000     0.108280000000     0.485740000000    -0.253268   
O228     O      0.309810000000     0.183460000000     0.516650000000    -0.242914   
O229     O      0.275890000000     0.125780000000     0.526640000000    -0.24692    
O230     O      0.326360000000     0.049060000000     0.499680000000    -0.249281   
O231     O      0.396030000000     0.179770000000     0.519280000000    -0.243646   
O232     O      0.372100000000     0.050860000000     0.540010000000    -0.248639   
O233     O      0.316020000000     0.169400000000     0.279000000000    -0.242567   
O234     O      0.353340000000     0.094160000000     0.733730000000    -0.253922   
O235     O      0.325560000000     0.081740000000     0.298800000000    -0.251177   
O236     O      0.423340000000     0.110340000000     0.767740000000    -0.244983   
O237     O      0.385920000000     0.166590000000     0.758940000000    -0.242801   
O238     O      0.374240000000     0.039490000000     0.787990000000    -0.251876   
O239     O      0.272000000000     0.124370000000     0.766120000000    -0.246604   
O240     O      0.320550000000     0.038550000000     0.745970000000    -0.255375   
O241     O      0.265000000000     0.942220000000     0.802900000000    -0.246026   
O242     O      0.159830000000     0.869460000000     0.321250000000    -0.244098   
O243     O      0.194500000000     0.993660000000     0.811370000000    -0.238863   
O244     O      0.228320000000     0.980050000000     0.352410000000    -0.255025   
O245     O      0.260350000000     0.917120000000     0.355870000000    -0.246007   
O246     O      0.145200000000     0.957410000000     0.325050000000    -0.245631   
O247     O      0.257650000000     0.872050000000     0.309030000000    -0.251213   
O248     O      0.189940000000     0.862300000000     0.347790000000    -0.243927   
O249     O      0.275090000000     0.895420000000     0.604260000000    -0.244261   
O250     O      0.191570000000     0.955850000000     0.557070000000    -0.242155   
O251     O      0.198100000000     0.847370000000     0.600760000000    -0.243015   
O252     O      0.266860000000     0.850500000000     0.557620000000    -0.248666   
O253     O      0.267440000000     0.920900000000     0.550780000000    -0.244834   
O254     O      0.175530000000     0.839350000000     0.572860000000    -0.24923    
O255     O      0.254230000000     0.962080000000     0.597360000000    -0.250814   
O256     O      0.160930000000     0.945470000000     0.583250000000    -0.24916    


