data_structure

_audit_creation_method RASPA-1.0
_audit_creation_date 2023-5-23
_audit_author_name 'Poobodin Mano'

_cell_length_a    67.935
_cell_length_b    68.1004
_cell_length_c    40.5147
_cell_angle_alpha 90.0306
_cell_angle_beta  89.9696
_cell_angle_gamma 120.468
_cell_volume      161554

_symmetry_cell_setting          triclinic
_symmetry_space_group_name_Hall 'P 1'
_symmetry_space_group_name_H-M  'P 1'
_symmetry_Int_Tables_number     1

_symmetry_equiv_pos_as_xyz 'x,y,z'

loop_
_atom_site_label
_atom_site_type_symbol
_atom_site_fract_x
_atom_site_fract_y
_atom_site_fract_z
_atom_site_charge
C1       C      0.448530000000     0.592290000000     0.101420000000     0.345624   
C2       C      0.381140000000     0.534040000000     0.028390000000     0.346121   
C3       C      0.440590000000     0.527860000000     0.059780000000     0.344871   
C4       C      0.385820000000     0.532770000000     0.140610000000     0.344923   
C5       C      0.533900000000     0.402480000000     0.952600000000     0.345251   
C6       C      0.599070000000     0.461590000000     0.022560000000     0.344801   
C7       C      0.596440000000     0.465090000000     0.912530000000     0.346541   
C8       C      0.537450000000     0.466420000000     0.988950000000     0.34656    
C9       C      0.935570000000     0.803710000000     0.179580000000     0.345884   
C10      C      0.869520000000     0.794030000000     0.104490000000     0.345653   
C11      C      0.931660000000     0.794960000000     0.068600000000     0.345085   
C12      C      0.874580000000     0.736810000000     0.149840000000     0.345374   
C13      C      0.712460000000     0.514580000000     0.200950000000     0.345294   
C14      C      0.778150000000     0.518760000000     0.267980000000     0.345249   
C15      C      0.776500000000     0.579960000000     0.230040000000     0.346128   
C16      C      0.718190000000     0.521830000000     0.310400000000     0.346306   
C17      C      0.265740000000     0.787330000000     0.357300000000     0.345584   
C18      C      0.200360000000     0.730950000000     0.287240000000     0.347612   
C19      C      0.205910000000     0.797870000000     0.326510000000     0.345541   
C20      C      0.261260000000     0.795190000000     0.248630000000     0.347146   
C21      C      0.046720000000     0.861650000000     0.361110000000     0.345388   
C22      C      0.111510000000     0.920900000000     0.436010000000     0.345682   
C23      C      0.048380000000     0.860740000000     0.472130000000     0.345321   
C24      C      0.107470000000     0.857870000000     0.395640000000     0.345295   
C25      C      0.533290000000     0.131800000000     0.445780000000     0.345922   
C26      C      0.599410000000     0.139580000000     0.518940000000     0.346465   
C27      C      0.538170000000     0.073560000000     0.487860000000     0.345054   
C28      C      0.594730000000     0.132590000000     0.407170000000     0.34497    
C29      C      0.447080000000     0.854460000000     0.601220000000     0.347254   
C30      C      0.380600000000     0.844490000000     0.532980000000     0.345679   
C31      C      0.386600000000     0.856570000000     0.642010000000     0.347113   
C32      C      0.440680000000     0.915070000000     0.562110000000     0.345379   
C33      C      0.933490000000     0.126400000000     0.690620000000     0.344592   
C34      C      0.874580000000     0.069130000000     0.618910000000     0.345461   
C35      C      0.872430000000     0.131870000000     0.653700000000     0.34931    
C36      C      0.934390000000     0.139250000000     0.579830000000     0.349516   
C37      C      0.711570000000     0.193930000000     0.699000000000     0.345515   
C38      C      0.778340000000     0.249770000000     0.775480000000     0.345223   
C39      C      0.714930000000     0.189800000000     0.810280000000     0.345105   
C40      C      0.771570000000     0.187650000000     0.728590000000     0.345407   
C41      C      0.269280000000     0.475420000000     0.848000000000     0.346101   
C42      C      0.202400000000     0.465000000000     0.774350000000     0.34589    
C43      C      0.265130000000     0.467780000000     0.736240000000     0.344817   
C44      C      0.209160000000     0.408390000000     0.817020000000     0.345677   
C45      C      0.049420000000     0.181260000000     0.865460000000     0.345467   
C46      C      0.116100000000     0.188250000000     0.931230000000     0.346607   
C47      C      0.112670000000     0.250090000000     0.892630000000     0.346196   
C48      C      0.057460000000     0.192800000000     0.973690000000     0.346953   
C49      C      0.862190000000     0.803480000000     0.693070000000     0.344312   
C50      C      0.918280000000     0.800130000000     0.620260000000     0.345609   
C51      C      0.854610000000     0.735190000000     0.657850000000     0.349379   
C52      C      0.849530000000     0.790500000000     0.582970000000     0.348567   
C53      C      0.730780000000     0.519440000000     0.774470000000     0.345518   
C54      C      0.786420000000     0.510250000000     0.696580000000     0.345334   
C55      C      0.793800000000     0.576620000000     0.729810000000     0.34507    
C56      C      0.790260000000     0.514920000000     0.807080000000     0.345885   
C57      C      0.178110000000     0.122020000000     0.183210000000     0.345211   
C58      C      0.184830000000     0.063940000000     0.107750000000     0.345797   
C59      C      0.184480000000     0.125010000000     0.072790000000     0.345669   
C60      C      0.243740000000     0.125950000000     0.152240000000     0.345227   
C61      C      0.465210000000     0.255200000000     0.270240000000     0.349625   
C62      C      0.476000000000     0.204330000000     0.198870000000     0.344943   
C63      C      0.454580000000     0.185190000000     0.305390000000     0.348551   
C64      C      0.401850000000     0.186780000000     0.228100000000     0.346378   
C65      C      0.838830000000     0.451600000000     0.516170000000     0.346134   
C66      C      0.847130000000     0.393570000000     0.443070000000     0.345461   
C67      C      0.847070000000     0.454090000000     0.404300000000     0.344705   
C68      C      0.905240000000     0.457690000000     0.486220000000     0.345073   
C69      C      0.127820000000     0.582560000000     0.596800000000     0.345299   
C70      C      0.133020000000     0.527640000000     0.524410000000     0.344088   
C71      C      0.119390000000     0.513520000000     0.633830000000     0.349732   
C72      C      0.064000000000     0.518850000000     0.559560000000     0.349053   
C73      C      0.065470000000     0.189030000000     0.435670000000     0.345617   
C74      C      0.122340000000     0.179370000000     0.361100000000     0.345821   
C75      C      0.129050000000     0.245980000000     0.391160000000     0.345041   
C76      C      0.125230000000     0.187160000000     0.472930000000     0.344974   
C77      C      0.254660000000     0.469680000000     0.285380000000     0.347907   
C78      C      0.200670000000     0.474430000000     0.359220000000     0.345526   
C79      C      0.182680000000     0.458680000000     0.250440000000     0.350368   
C80      C      0.189290000000     0.404980000000     0.321490000000     0.346833   
C81      C      0.455810000000     0.849160000000     0.036600000000     0.345025   
C82      C      0.397800000000     0.854780000000     0.114420000000     0.345504   
C83      C      0.458330000000     0.851920000000     0.146320000000     0.345482   
C84      C      0.459650000000     0.913830000000     0.070810000000     0.345086   
C85      C      0.582900000000     0.130930000000     0.953300000000     0.346015   
C86      C      0.527560000000     0.141630000000     0.024410000000     0.345069   
C87      C      0.520160000000     0.130110000000     0.916510000000     0.34665    
C88      C      0.517610000000     0.071440000000     0.996320000000     0.345901   
C89      C      0.801430000000     0.921370000000     0.935340000000     0.348337   
C90      C      0.808740000000     0.869780000000     0.859910000000     0.345261   
C91      C      0.790360000000     0.848980000000     0.967090000000     0.349871   
C92      C      0.737450000000     0.855970000000     0.895650000000     0.345884   
C93      C      0.512550000000     0.793580000000     0.857410000000     0.345061   
C94      C      0.519270000000     0.735820000000     0.781240000000     0.345721   
C95      C      0.518170000000     0.795900000000     0.746620000000     0.345668   
C96      C      0.578470000000     0.798040000000     0.825620000000     0.345222   
C97      C      0.128810000000     0.537040000000     0.109050000000     0.345684   
C98      C      0.136630000000     0.601280000000     0.031040000000     0.345581   
C99      C      0.071030000000     0.540810000000     0.064060000000     0.345314   
C100     C      0.130530000000     0.599330000000     0.143270000000     0.344984   
C101     C      0.839100000000     0.382820000000     0.024970000000     0.345342   
C102     C      0.849360000000     0.443170000000     0.951300000000     0.348897   
C103     C      0.912170000000     0.439960000000     0.991990000000     0.345579   
C104     C      0.859260000000     0.381650000000     0.918210000000     0.34997    
C105     C      0.185660000000     0.115980000000     0.613640000000     0.345265   
C106     C      0.178960000000     0.048650000000     0.680300000000     0.345069   
C107     C      0.187340000000     0.055820000000     0.571860000000     0.346166   
C108     C      0.245610000000     0.112270000000     0.653970000000     0.346007   
C109     C      0.461070000000     0.206010000000     0.780980000000     0.345476   
C110     C      0.468650000000     0.271320000000     0.705750000000     0.345098   
C111     C      0.402510000000     0.209220000000     0.736050000000     0.345106   
C112     C      0.462180000000     0.267960000000     0.815510000000     0.345893   
C113     C      0.251340000000     0.778870000000     0.777480000000     0.345322   
C114     C      0.192330000000     0.711790000000     0.848980000000     0.345176   
C115     C      0.187040000000     0.772520000000     0.817910000000     0.345709   
C116     C      0.190250000000     0.714840000000     0.739920000000     0.346119   
C117     C      0.124100000000     0.932860000000     0.855100000000     0.34523    
C118     C      0.066410000000     0.868440000000     0.930940000000     0.345944   
C119     C      0.128580000000     0.871700000000     0.889580000000     0.345538   
C120     C      0.127470000000     0.931330000000     0.966060000000     0.345861   
C121     C      0.584620000000     0.448720000000     0.450660000000     0.345709   
C122     C      0.525830000000     0.384530000000     0.527090000000     0.345285   
C123     C      0.522260000000     0.445590000000     0.492790000000     0.345034   
C124     C      0.524210000000     0.385890000000     0.416620000000     0.34563    
C125     C      0.460200000000     0.608640000000     0.532350000000     0.345303   
C126     C      0.399760000000     0.541500000000     0.599270000000     0.346235   
C127     C      0.465210000000     0.546360000000     0.562150000000     0.345635   
C128     C      0.461650000000     0.602450000000     0.641170000000     0.346446   
C129     C      0.923080000000     0.118230000000     0.111530000000     0.345602   
C130     C      0.865800000000     0.053510000000     0.188010000000     0.345249   
C131     C      0.860000000000     0.113510000000     0.153540000000     0.345194   
C132     C      0.862660000000     0.054250000000     0.077770000000     0.345613   
C133     C      0.726570000000     0.201470000000     0.263430000000     0.349652   
C134     C      0.778600000000     0.265160000000     0.195360000000     0.345179   
C135     C      0.796190000000     0.261740000000     0.301270000000     0.348702   
C136     C      0.796020000000     0.208130000000     0.224060000000     0.345696   
C137     C      0.812220000000     0.941070000000     0.367340000000     0.345799   
C138     C      0.802470000000     0.873690000000     0.440370000000     0.345536   
C139     C      0.806050000000     0.935990000000     0.478750000000     0.344898   
C140     C      0.746130000000     0.881360000000     0.396320000000     0.344739   
C141     C      0.521000000000     0.722960000000     0.355390000000     0.344795   
C142     C      0.522550000000     0.781960000000     0.284240000000     0.345622   
C143     C      0.587910000000     0.784470000000     0.319220000000     0.349607   
C144     C      0.532530000000     0.723200000000     0.244250000000     0.349477   
C145     C      0.684800000000     0.858740000000     0.385860000000    -0.0805121  
C146     C      0.679210000000     0.841850000000     0.361850000000     0.0363651  
C147     C      0.696760000000     0.838800000000     0.349460000000    -0.0805607  
C148     C      0.719080000000     0.852350000000     0.361000000000     0.0709605  
C149     C      0.707240000000     0.871730000000     0.397230000000     0.0709867  
C150     C      0.655190000000     0.827240000000     0.350260000000     0.0365754  
C151     C      0.636800000000     0.820810000000     0.371920000000    -0.0808625  
C152     C      0.614440000000     0.806820000000     0.360930000000     0.071559   
C153     C      0.627750000000     0.804950000000     0.307600000000     0.0714569  
C154     C      0.650350000000     0.819240000000     0.317630000000    -0.0805844  
C155     C      0.821960000000     0.988640000000     0.314560000000    -0.0815382  
C156     C      0.837830000000     0.989390000000     0.291850000000     0.0362319  
C157     C      0.845600000000     0.973970000000     0.295490000000    -0.0806694  
C158     C      0.836930000000     0.957840000000     0.320990000000     0.0705352  
C159     C      0.813870000000     0.972550000000     0.339780000000     0.0707607  
C160     C      0.845470000000     0.005800000000     0.264050000000     0.0363194  
C161     C      0.829430000000     0.008460000000     0.245990000000    -0.0816513  
C162     C      0.836600000000     0.024440000000     0.220630000000     0.0709668  
C163     C      0.875250000000     0.035360000000     0.230390000000     0.0704616  
C164     C      0.868620000000     0.019290000000     0.255820000000    -0.0807405  
C165     C      0.826150000000     0.176270000000     0.226680000000    -0.0804669  
C166     C      0.824630000000     0.169370000000     0.193690000000     0.0363506  
C167     C      0.813790000000     0.176350000000     0.171040000000    -0.0806787  
C168     C      0.804470000000     0.189440000000     0.181600000000     0.0708346  
C169     C      0.816830000000     0.189560000000     0.236330000000     0.0708713  
C170     C      0.834030000000     0.154790000000     0.183010000000     0.036322   
C171     C      0.854160000000     0.157490000000     0.196910000000    -0.0806028  
C172     C      0.862560000000     0.143490000000     0.186850000000     0.0706846  
C173     C      0.831880000000     0.124340000000     0.149190000000     0.0710019  
C174     C      0.822880000000     0.137890000000     0.158900000000    -0.0805057  
C175     C      0.461290000000     0.640010000000     0.458080000000    -0.0804009  
C176     C      0.483590000000     0.658760000000     0.459350000000     0.0362086  
C177     C      0.497320000000     0.660750000000     0.486370000000    -0.0814503  
C178     C      0.489050000000     0.643970000000     0.510670000000     0.0709017  
C179     C      0.453520000000     0.623460000000     0.482960000000     0.0705378  
C180     C      0.493070000000     0.675680000000     0.432100000000     0.0363164  
C181     C      0.515370000000     0.683630000000     0.420960000000    -0.0815275  
C182     C      0.524380000000     0.699540000000     0.395520000000     0.071334   
C183     C      0.489850000000     0.700110000000     0.391520000000     0.0702612  
C184     C      0.480220000000     0.684050000000     0.416990000000    -0.0805515  
C185     C      0.518190000000     0.490610000000     0.536050000000    -0.0806423  
C186     C      0.498410000000     0.488680000000     0.522050000000     0.0363431  
C187     C      0.486820000000     0.471870000000     0.497960000000    -0.0805252  
C188     C      0.495080000000     0.457660000000     0.488350000000     0.0709549  
C189     C      0.525840000000     0.475980000000     0.526090000000     0.0707886  
C190     C      0.489920000000     0.504060000000     0.532540000000     0.0364124  
C191     C      0.491770000000     0.511160000000     0.565470000000    -0.080581   
C192     C      0.483660000000     0.525520000000     0.574880000000     0.0710695  
C193     C      0.471700000000     0.525950000000     0.520070000000     0.0707468  
C194     C      0.479820000000     0.511770000000     0.509740000000    -0.0806766  
C195     C      0.158530000000     0.805940000000     0.816190000000    -0.0805015  
C196     C      0.161670000000     0.814040000000     0.848740000000     0.0364312  
C197     C      0.173360000000     0.807630000000     0.870710000000    -0.0806151  
C198     C      0.181770000000     0.793780000000     0.859960000000     0.0708883  
C199     C      0.166880000000     0.791850000000     0.806400000000     0.0710763  
C200     C      0.152900000000     0.829130000000     0.859640000000     0.0364537  
C201     C      0.164880000000     0.846470000000     0.882890000000    -0.0805567  
C202     C      0.156400000000     0.860410000000     0.892850000000     0.0711753  
C203     C      0.124670000000     0.840870000000     0.857030000000     0.0709017  
C204     C      0.132480000000     0.826410000000     0.846860000000    -0.0806352  
C205     C      0.504470000000     0.305860000000     0.636690000000    -0.0805615  
C206     C      0.495350000000     0.319930000000     0.630650000000     0.0363209  
C207     C      0.477560000000     0.317650000000     0.650770000000    -0.0816269  
C208     C      0.469040000000     0.301420000000     0.675830000000     0.0708804  
C209     C      0.495370000000     0.289590000000     0.661960000000     0.0703714  
C210     C      0.503700000000     0.336560000000     0.603040000000     0.0362192  
C211     C      0.527080000000     0.351000000000     0.597110000000    -0.0805389  
C212     C      0.534310000000     0.367110000000     0.571660000000     0.0705209  
C213     C      0.495840000000     0.354500000000     0.557460000000     0.0707608  
C214     C      0.488070000000     0.338420000000     0.582720000000    -0.081373   
C215     C      0.121620000000     0.967900000000     0.788270000000    -0.0807082  
C216     C      0.144750000000     0.981090000000     0.779740000000     0.0363218  
C217     C      0.160640000000     0.977780000000     0.797050000000    -0.0815277  
C218     C      0.153370000000     0.961580000000     0.822120000000     0.070769   
C219     C      0.114870000000     0.951600000000     0.813390000000     0.0704343  
C220     C      0.152540000000     0.998110000000     0.752690000000     0.0362716  
C221     C      0.168480000000     0.999370000000     0.729650000000    -0.0815916  
C222     C      0.176820000000     0.016180000000     0.705400000000     0.0708444  
C223     C      0.153780000000     0.030500000000     0.725730000000     0.0705381  
C224     C      0.144900000000     0.013700000000     0.750270000000    -0.0806463  
C225     C      0.308020000000     0.147160000000     0.655490000000    -0.0805519  
C226     C      0.312170000000     0.153310000000     0.688910000000     0.03644    
C227     C      0.293390000000     0.145330000000     0.710240000000    -0.0807847  
C228     C      0.271260000000     0.131750000000     0.698080000000     0.0709349  
C229     C      0.285660000000     0.133330000000     0.644230000000     0.0711203  
C230     C      0.335910000000     0.167930000000     0.701440000000     0.0364122  
C231     C      0.354000000000     0.166000000000     0.688500000000    -0.0806719  
C232     C      0.376170000000     0.179970000000     0.700330000000     0.0707853  
C233     C      0.363070000000     0.197480000000     0.738010000000     0.0711088  
C234     C      0.340740000000     0.183970000000     0.726500000000    -0.0805919  
C235     C      0.827610000000     0.354140000000     0.104890000000    -0.0807493  
C236     C      0.806810000000     0.334090000000     0.098840000000     0.0362994  
C237     C      0.796310000000     0.331490000000     0.068100000000    -0.0810349  
C238     C      0.806960000000     0.348370000000     0.043980000000     0.0708824  
C239     C      0.837790000000     0.370600000000     0.080230000000     0.0708672  
C240     C      0.796920000000     0.315610000000     0.123960000000     0.0362839  
C241     C      0.787690000000     0.292750000000     0.114730000000    -0.0805132  
C242     C      0.780830000000     0.275890000000     0.138940000000     0.0706798  
C243     C      0.790960000000     0.303530000000     0.181110000000     0.0709769  
C244     C      0.797970000000     0.320780000000     0.157610000000    -0.0812872  
C245     C      0.171360000000     0.633590000000     0.959740000000    -0.0805654  
C246     C      0.162380000000     0.647720000000     0.953110000000     0.0362568  
C247     C      0.145000000000     0.646150000000     0.973450000000    -0.0815315  
C248     C      0.136800000000     0.630650000000     0.999450000000     0.0707738  
C249     C      0.162530000000     0.618000000000     0.985890000000     0.0704275  
C250     C      0.170580000000     0.663810000000     0.924870000000     0.036257   
C251     C      0.193930000000     0.678410000000     0.918960000000    -0.0805545  
C252     C      0.201030000000     0.694410000000     0.893360000000     0.0704839  
C253     C      0.162490000000     0.681170000000     0.878750000000     0.0709193  
C254     C      0.154850000000     0.665220000000     0.904200000000    -0.0814417  
C255     C      0.021630000000     0.494730000000     0.021470000000    -0.0807848  
C256     C      0.003820000000     0.497720000000     0.032910000000     0.037773   
C257     C      0.009260000000     0.515730000000     0.054850000000    -0.0788234  
C258     C      0.031790000000     0.529880000000     0.065150000000     0.0707474  
C259     C      0.044030000000     0.509450000000     0.031860000000     0.0712185  
C260     C      0.979760000000     0.482150000000     0.022200000000     0.0346424  
C261     C      0.974710000000     0.472670000000     0.990380000000    -0.0799383  
C262     C      0.952020000000     0.458250000000     0.980830000000     0.0706742  
C263     C      0.939050000000     0.462520000000     0.033180000000     0.0707929  
C264     C      0.961500000000     0.476650000000     0.043730000000    -0.080142   
C265     C      0.517510000000     0.692130000000     0.726910000000    -0.0809448  
C266     C      0.496320000000     0.673220000000     0.735060000000     0.0364204  
C267     C      0.483950000000     0.675210000000     0.761250000000    -0.0808572  
C268     C      0.492350000000     0.696080000000     0.777540000000     0.0709862  
C269     C      0.525290000000     0.712710000000     0.743510000000     0.0711289  
C270     C      0.486420000000     0.652410000000     0.714210000000     0.0363636  
C271     C      0.463630000000     0.641990000000     0.703910000000    -0.0808247  
C272     C      0.455370000000     0.624630000000     0.680390000000     0.0708454  
C273     C      0.491200000000     0.626570000000     0.678450000000     0.0710365  
C274     C      0.500070000000     0.644080000000     0.701850000000    -0.0810163  
C275     C      0.841730000000     0.979820000000     0.961110000000    -0.0810811  
C276     C      0.828060000000     0.984170000000     0.982320000000     0.0364618  
C277     C      0.804750000000     0.967950000000     0.984460000000    -0.080748   
C278     C      0.795920000000     0.947430000000     0.967300000000     0.0713372  
C279     C      0.832300000000     0.959100000000     0.944210000000     0.0711108  
C280     C      0.838290000000     0.004360000000     0.004480000000     0.0364222  
C281     C      0.858880000000     0.010850000000     0.020770000000    -0.0809984  
C282     C      0.867050000000     0.028010000000     0.044560000000     0.0708146  
C283     C      0.835560000000     0.033310000000     0.035630000000     0.0707213  
C284     C      0.826830000000     0.016120000000     0.011710000000    -0.0808439  
C285     C      0.687990000000     0.844180000000     0.845170000000    -0.0807229  
C286     C      0.669790000000     0.830980000000     0.866650000000     0.0364361  
C287     C      0.674920000000     0.826090000000     0.898080000000    -0.0803766  
C288     C      0.697630000000     0.834310000000     0.907260000000     0.0710283  
C289     C      0.710460000000     0.852410000000     0.855350000000     0.0712296  
C290     C      0.645700000000     0.822420000000     0.856260000000     0.0362847  
C291     C      0.640260000000     0.835260000000     0.835020000000    -0.0804044  
C292     C      0.617720000000     0.826800000000     0.824890000000     0.0709395  
C293     C      0.605470000000     0.793500000000     0.857010000000     0.0707056  
C294     C      0.627880000000     0.801270000000     0.867210000000    -0.0803981  
C295     C      0.517110000000     0.166940000000     0.853670000000    -0.081059   
C296     C      0.493830000000     0.154950000000     0.845770000000     0.0365084  
C297     C      0.480020000000     0.133330000000     0.859700000000    -0.0810941  
C298     C      0.489330000000     0.124750000000     0.882300000000     0.0710803  
C299     C      0.525800000000     0.157900000000     0.876400000000     0.0710331  
C300     C      0.483780000000     0.165970000000     0.825700000000     0.0363302  
C301     C      0.463250000000     0.164400000000     0.835450000000    -0.0808579  
C302     C      0.455490000000     0.177300000000     0.819350000000     0.0709799  
C303     C      0.487140000000     0.192380000000     0.782880000000     0.0709096  
C304     C      0.495470000000     0.179750000000     0.798540000000    -0.0808035  
C305     C      0.517540000000     0.825910000000     0.239930000000    -0.0805974  
C306     C      0.493870000000     0.816920000000     0.240410000000     0.0364052  
C307     C      0.480390000000     0.797370000000     0.259420000000    -0.0808887  
C308     C      0.490420000000     0.786460000000     0.275450000000     0.0709717  
C309     C      0.526990000000     0.814590000000     0.256280000000     0.0714035  
C310     C      0.483250000000     0.826560000000     0.218620000000     0.0363835  
C311     C      0.493680000000     0.850090000000     0.213170000000    -0.0807903  
C312     C      0.484760000000     0.858430000000     0.189530000000     0.0707347  
C313     C      0.455020000000     0.820890000000     0.177440000000     0.0708282  
C314     C      0.463420000000     0.812000000000     0.200840000000    -0.0809042  
C315     C      0.477640000000     0.791950000000     0.927740000000    -0.0804507  
C316     C      0.486010000000     0.815240000000     0.932750000000     0.0362012  
C317     C      0.503000000000     0.830890000000     0.911560000000    -0.0813995  
C318     C      0.511500000000     0.823250000000     0.886460000000     0.070704   
C319     C      0.486680000000     0.784870000000     0.902390000000     0.070416   
C320     C      0.477750000000     0.823510000000     0.960410000000     0.0363362  
C321     C      0.454430000000     0.813500000000     0.967610000000    -0.0805132  
C322     C      0.447250000000     0.822340000000     0.993110000000     0.0704098  
C323     C      0.485670000000     0.850260000000     0.004840000000     0.0709582  
C324     C      0.493390000000     0.842010000000     0.979520000000    -0.081593   
C325     C      0.463400000000     0.962610000000     0.026970000000    -0.0806636  
C326     C      0.483600000000     0.980740000000     0.039930000000     0.0363572  
C327     C      0.495500000000     0.975840000000     0.063710000000    -0.0804263  
C328     C      0.487190000000     0.953390000000     0.073940000000     0.0708975  
C329     C      0.455700000000     0.940350000000     0.037520000000     0.0707098  
C330     C      0.492230000000     0.004570000000     0.028580000000     0.0363565  
C331     C      0.489770000000     0.009210000000     0.995590000000    -0.080494   
C332     C      0.498090000000     0.031650000000     0.985320000000     0.0710408  
C333     C      0.511420000000     0.045190000000     0.039360000000     0.0707419  
C334     C      0.503110000000     0.022950000000     0.050550000000    -0.080548   
C335     C      0.124740000000     0.489980000000     0.157780000000    -0.0808311  
C336     C      0.147520000000     0.495160000000     0.158120000000     0.0363286  
C337     C      0.163390000000     0.513410000000     0.138610000000    -0.0799518  
C338     C      0.156590000000     0.526590000000     0.120900000000     0.0710512  
C339     C      0.118650000000     0.503750000000     0.140300000000     0.0711298  
C340     C      0.155010000000     0.482870000000     0.180670000000     0.036595   
C341     C      0.144950000000     0.475610000000     0.211910000000    -0.0806586  
C342     C      0.153700000000     0.466420000000     0.234310000000     0.0713285  
C343     C      0.181720000000     0.470630000000     0.195570000000     0.0712692  
C344     C      0.173210000000     0.479620000000     0.172350000000    -0.0807574  
C345     C      0.183180000000     0.159600000000     0.564520000000    -0.0806868  
C346     C      0.160600000000     0.154160000000     0.569840000000     0.0365115  
C347     C      0.147570000000     0.137510000000     0.593430000000    -0.0809793  
C348     C      0.156680000000     0.125700000000     0.609400000000     0.071223   
C349     C      0.191690000000     0.147400000000     0.580780000000     0.0710311  
C350     C      0.150100000000     0.163940000000     0.548140000000     0.036347   
C351     C      0.162330000000     0.186800000000     0.538160000000    -0.0808315  
C352     C      0.153340000000     0.194640000000     0.513890000000     0.0706671  
C353     C      0.120070000000     0.158080000000     0.510240000000     0.0707414  
C354     C      0.128450000000     0.149740000000     0.534520000000    -0.0807525  
C355     C      0.167270000000     0.307500000000     0.382030000000    -0.0803363  
C356     C      0.155090000000     0.313160000000     0.359780000000     0.0363416  
C357     C      0.134130000000     0.295540000000     0.347860000000    -0.0804606  
C358     C      0.125860000000     0.273120000000     0.358210000000     0.0710424  
C359     C      0.158290000000     0.284970000000     0.392320000000     0.0709565  
C360     C      0.164060000000     0.337290000000     0.349510000000     0.036549   
C361     C      0.176860000000     0.355270000000     0.371470000000    -0.0807755  
C362     C      0.185280000000     0.377760000000     0.361560000000     0.0713815  
C363     C      0.168200000000     0.365380000000     0.308920000000     0.0711621  
C364     C      0.159850000000     0.342660000000     0.317820000000    -0.0803879  
C365     C      0.131680000000     0.629730000000     0.644940000000    -0.0806265  
C366     C      0.155100000000     0.645640000000     0.643090000000     0.0364828  
C367     C      0.168630000000     0.640980000000     0.622020000000    -0.0808534  
C368     C      0.158980000000     0.620190000000     0.605250000000     0.0710186  
C369     C      0.122620000000     0.609180000000     0.627780000000     0.0715184  
C370     C      0.165550000000     0.665740000000     0.665470000000     0.0364308  
C371     C      0.154070000000     0.677360000000     0.673580000000    -0.0807969  
C372     C      0.162890000000     0.694260000000     0.697920000000     0.0709052  
C373     C      0.194660000000     0.689200000000     0.705310000000     0.0707115  
C374     C      0.186340000000     0.672240000000     0.681200000000    -0.0808584  
C375     C      0.142680000000     0.494690000000     0.462080000000    -0.0815177  
C376     C      0.165760000000     0.509160000000     0.454440000000     0.0362565  
C377     C      0.177360000000     0.530760000000     0.469160000000    -0.0806661  
C378     C      0.166030000000     0.537020000000     0.492040000000     0.0702097  
C379     C      0.131910000000     0.501510000000     0.484770000000     0.0712856  
C380     C      0.177380000000     0.501270000000     0.431520000000     0.0362351  
C381     C      0.173460000000     0.479060000000     0.434150000000    -0.0814705  
C382     C      0.182300000000     0.470750000000     0.410520000000     0.0712519  
C383     C      0.199940000000     0.506220000000     0.382540000000     0.0706046  
C384     C      0.191390000000     0.515150000000     0.405930000000    -0.0806539  
C385     C      0.812290000000     0.335460000000     0.411830000000    -0.079977   
C386     C      0.828790000000     0.332220000000     0.395870000000     0.0362764  
C387     C      0.851820000000     0.349120000000     0.399480000000    -0.0808391  
C388     C      0.857700000000     0.369230000000     0.416390000000     0.0710322  
C389     C      0.818840000000     0.355610000000     0.429160000000     0.0710221  
C390     C      0.821890000000     0.312400000000     0.373370000000     0.0365949  
C391     C      0.802010000000     0.291370000000     0.379180000000    -0.0807178  
C392     C      0.794130000000     0.274170000000     0.355370000000     0.0713168  
C393     C      0.826060000000     0.297170000000     0.321360000000     0.0718459  
C394     C      0.834240000000     0.314860000000     0.344340000000    -0.0807456  
C395     C      0.966950000000     0.495830000000     0.494710000000    -0.0813912  
C396     C      0.972460000000     0.484450000000     0.518570000000     0.0378697  
C397     C      0.954720000000     0.463970000000     0.531520000000    -0.0814557  
C398     C      0.932310000000     0.455430000000     0.520720000000     0.0713296  
C399     C      0.944410000000     0.486580000000     0.484050000000     0.0711732  
C400     C      0.996550000000     0.493740000000     0.529560000000     0.0314485  
C401     C      0.014780000000     0.505610000000     0.507530000000    -0.0772497  
C402     C      0.037220000000     0.514120000000     0.518120000000     0.070411   
C403     C      0.024260000000     0.499110000000     0.571680000000     0.0696886  
C404     C      0.001610000000     0.490700000000     0.562080000000    -0.0751078  
C405     C      0.489590000000     0.349100000000     0.348570000000    -0.0805585  
C406     C      0.500820000000     0.337030000000     0.341850000000     0.0362849  
C407     C      0.520770000000     0.342760000000     0.359440000000    -0.0808588  
C408     C      0.528600000000     0.359530000000     0.383760000000     0.0709427  
C409     C      0.497970000000     0.365900000000     0.373100000000     0.0706227  
C410     C      0.491020000000     0.317360000000     0.318730000000     0.0366482  
C411     C      0.467540000000     0.301530000000     0.318850000000    -0.080802   
C412     C      0.459010000000     0.281280000000     0.301020000000     0.0714656  
C413     C      0.496100000000     0.292550000000     0.281180000000     0.0714745  
C414     C      0.505210000000     0.313000000000     0.298680000000    -0.0812033  
C415     C      0.492970000000     0.196810000000     0.116280000000    -0.0809926  
C416     C      0.504720000000     0.185330000000     0.123460000000     0.0362934  
C417     C      0.508500000000     0.182400000000     0.156590000000    -0.0809415  
C418     C      0.499540000000     0.189720000000     0.181570000000     0.0709512  
C419     C      0.484340000000     0.204020000000     0.141900000000     0.0708197  
C420     C      0.511480000000     0.174990000000     0.096690000000     0.0362981  
C421     C      0.496350000000     0.163310000000     0.070810000000    -0.0811436  
C422     C      0.502100000000     0.152360000000     0.046850000000     0.070868   
C423     C      0.537720000000     0.164590000000     0.072900000000     0.0706043  
C424     C      0.532430000000     0.175630000000     0.097490000000    -0.0807727  
C425     C      0.148860000000     0.003760000000     0.086000000000    -0.0810168  
C426     C      0.161820000000     0.001630000000     0.060810000000     0.0364572  
C427     C      0.183590000000     0.020150000000     0.054200000000    -0.0810399  
C428     C      0.191380000000     0.040620000000     0.071150000000     0.0711639  
C429     C      0.157300000000     0.024470000000     0.102720000000     0.0711322  
C430     C      0.151930000000     0.981190000000     0.039250000000     0.0364798  
C431     C      0.165060000000     0.971830000000     0.028600000000    -0.0810179  
C432     C      0.156290000000     0.954460000000     0.004960000000     0.070868   
C433     C      0.121690000000     0.955020000000     0.002930000000     0.0709242  
C434     C      0.129810000000     0.972180000000     0.026720000000    -0.0810716  
C435     C      0.159240000000     0.168830000000     0.307430000000    -0.0816251  
C436     C      0.143460000000     0.152250000000     0.285930000000     0.0362281  
C437     C      0.120180000000     0.144390000000     0.290610000000    -0.0804311  
C438     C      0.113260000000     0.153610000000     0.315930000000     0.0703382  
C439     C      0.151770000000     0.177450000000     0.332530000000     0.0708568  
C440     C      0.151650000000     0.143960000000     0.258260000000     0.036359   
C441     C      0.170030000000     0.159570000000     0.238930000000    -0.0816846  
C442     C      0.178460000000     0.151860000000     0.213860000000     0.0708933  
C443     C      0.150930000000     0.113490000000     0.226300000000     0.0704326  
C444     C      0.141870000000     0.120670000000     0.251500000000    -0.0806337  
C445     C      0.339380000000     0.158000000000     0.229160000000    -0.0806135  
C446     C      0.334550000000     0.159320000000     0.195840000000     0.0365004  
C447     C      0.352830000000     0.169450000000     0.173550000000    -0.0808501  
C448     C      0.375200000000     0.178370000000     0.184760000000     0.0709013  
C449     C      0.361970000000     0.166900000000     0.239470000000     0.0709877  
C450     C      0.310650000000     0.150480000000     0.184410000000     0.0363568  
C451     C      0.292390000000     0.130790000000     0.198300000000    -0.0805885  
C452     C      0.270110000000     0.122880000000     0.187360000000     0.0707195  
C453     C      0.283390000000     0.153220000000     0.148930000000     0.0711203  
C454     C      0.305840000000     0.161720000000     0.159490000000    -0.0805959  
C455     C      0.793470000000     0.475360000000     0.864650000000    -0.08108    
C456     C      0.813910000000     0.489680000000     0.881280000000     0.0364902  
C457     C      0.825520000000     0.513020000000     0.873970000000    -0.0809084  
C458     C      0.817040000000     0.521380000000     0.849700000000     0.0708041  
C459     C      0.785560000000     0.484250000000     0.840510000000     0.070939   
C460     C      0.823840000000     0.479800000000     0.903890000000     0.0365155  
C461     C      0.809870000000     0.461690000000     0.924990000000    -0.0811083  
C462     C      0.818950000000     0.450280000000     0.942110000000     0.0711997  
C463     C      0.855600000000     0.475150000000     0.919620000000     0.0714773  
C464     C      0.847120000000     0.486960000000     0.902220000000    -0.0808772  
C465     C      0.822120000000     0.501710000000     0.637630000000    -0.0816224  
C466     C      0.805890000000     0.482740000000     0.619890000000     0.0362522  
C467     C      0.782840000000     0.472830000000     0.628690000000    -0.0805874  
C468     C      0.776470000000     0.482290000000     0.654360000000     0.0703782  
C469     C      0.815230000000     0.510520000000     0.663240000000     0.0708649  
C470     C      0.813270000000     0.474000000000     0.591830000000     0.0362608  
C471     C      0.828770000000     0.489250000000     0.568720000000    -0.0817444  
C472     C      0.836800000000     0.481320000000     0.543400000000     0.0707819  
C473     C      0.814360000000     0.443390000000     0.562850000000     0.0704345  
C474     C      0.805760000000     0.450760000000     0.588450000000    -0.0805794  
C475     C      0.835590000000     0.848630000000     0.470570000000    -0.0799837  
C476     C      0.818870000000     0.829670000000     0.488060000000     0.036317   
C477     C      0.796130000000     0.824450000000     0.485620000000    -0.0809746  
C478     C      0.790850000000     0.838930000000     0.468460000000     0.0712028  
C479     C      0.829610000000     0.862520000000     0.453040000000     0.0708656  
C480     C      0.825320000000     0.816730000000     0.511010000000     0.0364368  
C481     C      0.843960000000     0.813820000000     0.504430000000    -0.080677   
C482     C      0.851350000000     0.804150000000     0.528300000000     0.0706905  
C483     C      0.821440000000     0.798750000000     0.564170000000     0.070986   
C484     C      0.813770000000     0.808550000000     0.541110000000    -0.0806955  
C485     C      0.866440000000     0.846200000000     0.752490000000    -0.080637   
C486     C      0.843760000000     0.836080000000     0.763360000000     0.03617    
C487     C      0.827900000000     0.814390000000     0.751530000000    -0.081495   
C488     C      0.834590000000     0.803590000000     0.728720000000     0.0710908  
C489     C      0.872550000000     0.834910000000     0.729350000000     0.0700983  
C490     C      0.836260000000     0.847740000000     0.786870000000     0.0362509  
C491     C      0.848880000000     0.858430000000     0.815330000000    -0.0807019  
C492     C      0.839890000000     0.866730000000     0.839030000000     0.0705602  
C493     C      0.807070000000     0.855460000000     0.805970000000     0.071074   
C494     C      0.815480000000     0.846960000000     0.781920000000    -0.0813835  
C495     C      0.832430000000     0.638100000000     0.720760000000    -0.0804398  
C496     C      0.820370000000     0.643850000000     0.698440000000     0.0363273  
C497     C      0.799210000000     0.626400000000     0.686850000000    -0.0805871  
C498     C      0.790680000000     0.604000000000     0.697420000000     0.0708589  
C499     C      0.823250000000     0.615560000000     0.731140000000     0.0709586  
C500     C      0.829670000000     0.667880000000     0.687550000000     0.0365359  
C501     C      0.842240000000     0.686070000000     0.709300000000    -0.0807808  
C502     C      0.850660000000     0.708470000000     0.698820000000     0.0714339  
C503     C      0.834350000000     0.695520000000     0.645870000000     0.0714099  
C504     C      0.825920000000     0.672920000000     0.655400000000    -0.0805988  
C505     C      0.984340000000     0.145540000000     0.094720000000    -0.0802766  
C506     C      0.986400000000     0.158760000000     0.067000000000     0.0341248  
C507     C      0.967270000000     0.159780000000     0.056720000000    -0.0803449  
C508     C      0.946410000000     0.146770000000     0.072800000000     0.0706076  
C509     C      0.963190000000     0.132830000000     0.110410000000     0.0705646  
C510     C      0.007530000000     0.169540000000     0.046710000000     0.0389062  
C511     C      0.015570000000     0.190970000000     0.032210000000    -0.0819178  
C512     C      0.033180000000     0.199100000000     0.008960000000     0.0717127  
C513     C      0.035880000000     0.165940000000     0.015420000000     0.0718065  
C514     C      0.018440000000     0.157360000000     0.038860000000    -0.0817875  
C515     C      0.146980000000     0.129690000000     0.012740000000    -0.080948   
C516     C      0.161790000000     0.150760000000     0.998060000000     0.0364188  
C517     C      0.184880000000     0.162190000000     0.007190000000    -0.0808168  
C518     C      0.192450000000     0.152950000000     0.031460000000     0.0707386  
C519     C      0.155070000000     0.121040000000     0.036970000000     0.0709135  
C520     C      0.152540000000     0.161550000000     0.975940000000     0.0365469  
C521     C      0.135170000000     0.148520000000     0.953220000000    -0.0810908  
C522     C      0.123950000000     0.158120000000     0.936870000000     0.071389   
C523     C      0.147690000000     0.193570000000     0.963250000000     0.0712314  
C524     C      0.159310000000     0.184560000000     0.979900000000    -0.0807255  
C525     C      0.339310000000     0.518820000000     0.617660000000    -0.0810775  
C526     C      0.335420000000     0.502250000000     0.641390000000     0.036538   
C527     C      0.352750000000     0.497320000000     0.647510000000    -0.0808016  
C528     C      0.373850000000     0.509900000000     0.631850000000     0.0711362  
C529     C      0.360640000000     0.531040000000     0.602340000000     0.0712802  
C530     C      0.314600000000     0.491990000000     0.662370000000     0.0363741  
C531     C      0.306530000000     0.505700000000     0.675180000000    -0.0808322  
C532     C      0.289300000000     0.496990000000     0.698940000000     0.0708275  
C533     C      0.286760000000     0.460990000000     0.696340000000     0.0705788  
C534     C      0.304070000000     0.469200000000     0.672570000000    -0.0808169  
C535     C      0.153010000000     0.459110000000     0.729640000000    -0.0809079  
C536     C      0.158410000000     0.481850000000     0.727390000000     0.0365035  
C537     C      0.177590000000     0.498430000000     0.744690000000    -0.0802217  
C538     C      0.191480000000     0.492290000000     0.761910000000     0.0712151  
C539     C      0.167500000000     0.453660000000     0.746530000000     0.0711642  
C540     C      0.145400000000     0.488490000000     0.704860000000     0.0364996  
C541     C      0.136860000000     0.477060000000     0.674780000000    -0.0807002  
C542     C      0.127120000000     0.485000000000     0.652040000000     0.0710846  
C543     C      0.133240000000     0.514930000000     0.688240000000     0.0710092  
C544     C      0.142830000000     0.507260000000     0.711800000000    -0.0807061  
C545     C      0.167100000000     0.359090000000     0.864440000000    -0.0807771  
C546     C      0.168360000000     0.341240000000     0.849280000000     0.0364082  
C547     C      0.183750000000     0.346540000000     0.823060000000    -0.0805584  
C548     C      0.197210000000     0.369070000000     0.812510000000     0.0710308  
C549     C      0.180990000000     0.381450000000     0.853480000000     0.0710977  
C550     C      0.153700000000     0.317280000000     0.860690000000     0.0364676  
C551     C      0.148420000000     0.312270000000     0.894230000000    -0.08069    
C552     C      0.134540000000     0.289720000000     0.904450000000     0.0712431  
C553     C      0.131150000000     0.276780000000     0.849280000000     0.0708657  
C554     C      0.144780000000     0.299140000000     0.838150000000    -0.0806952  
C555     C      0.675920000000     0.152330000000     0.874350000000    -0.0809194  
C556     C      0.665930000000     0.164910000000     0.884890000000     0.0363405  
C557     C      0.674130000000     0.186710000000     0.871770000000    -0.0809584  
C558     C      0.691060000000     0.195020000000     0.847600000000     0.0708022  
C559     C      0.693020000000     0.161270000000     0.850220000000     0.0705963  
C560     C      0.645650000000     0.154750000000     0.906930000000     0.0364506  
C561     C      0.627700000000     0.132470000000     0.901550000000    -0.0807875  
C562     C      0.607140000000     0.124380000000     0.918530000000     0.0711189  
C563     C      0.622150000000     0.159210000000     0.947820000000     0.071225   
C564     C      0.642940000000     0.167900000000     0.931160000000    -0.0811519  
C565     C      0.804280000000     0.308470000000     0.805060000000    -0.0800273  
C566     C      0.822030000000     0.310220000000     0.824960000000     0.036329   
C567     C      0.826170000000     0.292040000000     0.824810000000    -0.0809243  
C568     C      0.811840000000     0.272230000000     0.807150000000     0.0709626  
C569     C      0.790520000000     0.288530000000     0.787200000000     0.0709888  
C570     C      0.834800000000     0.329960000000     0.847720000000     0.0365002  
C571     C      0.839010000000     0.351760000000     0.839430000000    -0.080752   
C572     C      0.848170000000     0.369220000000     0.862910000000     0.0712275  
C573     C      0.850840000000     0.344710000000     0.901820000000     0.0713758  
C574     C      0.841430000000     0.326800000000     0.879160000000    -0.080631   
C575     C      0.988780000000     0.175680000000     0.538400000000    -0.0827088  
C576     C      0.985310000000     0.164670000000     0.507850000000     0.0355949  
C577     C      0.963510000000     0.146150000000     0.500930000000    -0.080618   
C578     C      0.946310000000     0.138360000000     0.524850000000     0.0706985  
C579     C      0.971170000000     0.167610000000     0.561520000000     0.0716482  
C580     C      0.004820000000     0.171550000000     0.484700000000     0.0373203  
C581     C      0.022510000000     0.194320000000     0.482700000000    -0.0810326  
C582     C      0.042340000000     0.199980000000     0.465100000000     0.071267   
C583     C      0.026930000000     0.161540000000     0.448580000000     0.0705797  
C584     C      0.006960000000     0.155190000000     0.466470000000    -0.0779931  
C585     C      0.858390000000     0.010950000000     0.595740000000    -0.0807973  
C586     C      0.839310000000     0.004870000000     0.575700000000     0.0364511  
C587     C      0.830750000000     0.019730000000     0.574030000000    -0.0807599  
C588     C      0.842130000000     0.040700000000     0.590180000000     0.071543   
C589     C      0.869380000000     0.032120000000     0.611550000000     0.0708224  
C590     C      0.829910000000     0.984540000000     0.553820000000     0.0363878  
C591     C      0.844740000000     0.979340000000     0.537060000000    -0.0808481  
C592     C      0.836270000000     0.962410000000     0.512930000000     0.0707879  
C593     C      0.798560000000     0.954650000000     0.522560000000     0.0706749  
C594     C      0.806470000000     0.971540000000     0.546910000000    -0.0807796  
C595     C      0.018090000000     0.151920000000     0.790380000000    -0.078535   
C596     C      0.998270000000     0.153270000000     0.793830000000     0.0347825  
C597     C      0.995550000000     0.163050000000     0.822610000000    -0.0830842  
C598     C      0.012680000000     0.171940000000     0.846450000000     0.0727553  
C599     C      0.034950000000     0.161000000000     0.814880000000     0.0704664  
C600     C      0.980960000000     0.145660000000     0.767060000000     0.0365236  
C601     C      0.971260000000     0.158880000000     0.758760000000    -0.0815682  
C602     C      0.955230000000     0.151970000000     0.733450000000     0.0712492  
C603     C      0.957870000000     0.119000000000     0.724170000000     0.0704033  
C604     C      0.974090000000     0.125480000000     0.749420000000    -0.0810452  
C605     C      0.834620000000     0.142480000000     0.705400000000    -0.0809981  
C606     C      0.828350000000     0.154420000000     0.683710000000     0.0366047  
C607     C      0.837150000000     0.158430000000     0.651480000000    -0.0806605  
C608     C      0.851940000000     0.150850000000     0.641840000000     0.0714149  
C609     C      0.849130000000     0.134850000000     0.694780000000     0.071618   
C610     C      0.813020000000     0.162860000000     0.694870000000     0.0362564  
C611     C      0.795590000000     0.150570000000     0.717930000000    -0.0805093  
C612     C      0.781930000000     0.159130000000     0.729010000000     0.0710167  
C613     C      0.801650000000     0.191370000000     0.694250000000     0.0708771  
C614     C      0.815870000000     0.183500000000     0.683030000000    -0.0804637  
C615     C      0.347560000000     0.820140000000     0.706480000000    -0.0808915  
C616     C      0.336350000000     0.831970000000     0.714760000000     0.0365234  
C617     C      0.344200000000     0.853510000000     0.700730000000    -0.0810383  
C618     C      0.361840000000     0.862060000000     0.677470000000     0.0713127  
C619     C      0.365110000000     0.829190000000     0.683190000000     0.0712214  
C620     C      0.315120000000     0.820700000000     0.734900000000     0.0363826  
C621     C      0.296160000000     0.822310000000     0.725480000000    -0.0807238  
C622     C      0.275190000000     0.808910000000     0.741080000000     0.0708475  
C623     C      0.291440000000     0.793270000000     0.776600000000     0.0709472  
C624     C      0.312740000000     0.806450000000     0.761470000000    -0.0808423  
C625     C      0.491050000000     0.852840000000     0.650920000000    -0.0808363  
C626     C      0.484750000000     0.829900000000     0.647980000000     0.0365419  
C627     C      0.467470000000     0.816190000000     0.625540000000    -0.0811904  
C628     C      0.455860000000     0.825080000000     0.608460000000     0.0713021  
C629     C      0.479030000000     0.861130000000     0.633570000000     0.0712316  
C630     C      0.494360000000     0.819850000000     0.670860000000     0.0363931  
C631     C      0.517520000000     0.831700000000     0.679640000000    -0.0808273  
C632     C      0.525460000000     0.823070000000     0.704320000000     0.0706671  
C633     C      0.488280000000     0.791060000000     0.711090000000     0.0709515  
C634     C      0.479840000000     0.799060000000     0.686440000000    -0.0810968  
C635     C      0.679380000000     0.158070000000     0.312380000000    -0.0807509  
C636     C      0.663200000000     0.164920000000     0.309280000000     0.0366311  
C637     C      0.667660000000     0.182490000000     0.287060000000    -0.0812268  
C638     C      0.688560000000     0.193820000000     0.270460000000     0.0712541  
C639     C      0.700060000000     0.169740000000     0.295370000000     0.071599   
C640     C      0.643100000000     0.155510000000     0.331690000000     0.0362333  
C641     C      0.631370000000     0.132480000000     0.340890000000    -0.0806352  
C642     C      0.614550000000     0.124810000000     0.365390000000     0.070561   
C643     C      0.620000000000     0.161910000000     0.370850000000     0.0706734  
C644     C      0.636800000000     0.170110000000     0.346480000000    -0.080736   
C645     C      0.468560000000     0.146370000000     0.347280000000    -0.0804583  
C646     C      0.478260000000     0.158150000000     0.376800000000     0.0365227  
C647     C      0.477310000000     0.177900000000     0.383270000000    -0.0806067  
C648     C      0.468420000000     0.186240000000     0.359650000000     0.0713111  
C649     C      0.459440000000     0.154970000000     0.324500000000     0.0717157  
C650     C      0.490860000000     0.150860000000     0.399120000000     0.0364511  
C651     C      0.484450000000     0.127840000000     0.401800000000    -0.0807776  
C652     C      0.498470000000     0.121680000000     0.418560000000     0.0710554  
C653     C      0.523970000000     0.160190000000     0.432980000000     0.0711985  
C654     C      0.510600000000     0.167030000000     0.415840000000    -0.080124   
C655     C      0.665350000000     0.157570000000     0.642530000000    -0.0817902  
C656     C      0.663890000000     0.173600000000     0.622740000000     0.0362662  
C657     C      0.678430000000     0.196800000000     0.629490000000    -0.0806343  
C658     C      0.694410000000     0.203460000000     0.655130000000     0.0702883  
C659     C      0.681230000000     0.164770000000     0.668050000000     0.0709164  
C660     C      0.647640000000     0.165790000000     0.594670000000     0.0363103  
C661     C      0.646360000000     0.149070000000     0.573240000000    -0.0818112  
C662     C      0.630300000000     0.140770000000     0.547900000000     0.0709265  
C663     C      0.616670000000     0.165220000000     0.564160000000     0.0705082  
C664     C      0.632800000000     0.174140000000     0.589680000000    -0.0806846  
C665     C      0.475910000000     0.977310000000     0.564240000000    -0.0804457  
C666     C      0.481230000000     0.982470000000     0.530730000000     0.0363078  
C667     C      0.472170000000     0.964440000000     0.508010000000    -0.0806529  
C668     C      0.458560000000     0.942030000000     0.518940000000     0.0707316  
C669     C      0.462030000000     0.954700000000     0.574280000000     0.0709829  
C670     C      0.496240000000     0.006430000000     0.519540000000     0.0363851  
C671     C      0.495390000000     0.024450000000     0.534900000000    -0.0806693  
C672     C      0.509650000000     0.046810000000     0.524130000000     0.0709568  
C673     C      0.525440000000     0.034100000000     0.482990000000     0.0710946  
C674     C      0.511610000000     0.011570000000     0.493350000000    -0.0805408  
C675     C      0.965990000000     0.804050000000     0.573160000000    -0.0801066  
C676     C      0.980690000000     0.827690000000     0.571550000000     0.0347117  
C677     C      0.975270000000     0.841660000000     0.590240000000    -0.0803937  
C678     C      0.954810000000     0.832040000000     0.607990000000     0.070772   
C679     C      0.945720000000     0.795030000000     0.591180000000     0.0710462  
C680     C      0.000200000000     0.837670000000     0.548020000000     0.0377281  
C681     C      0.013290000000     0.827380000000     0.542290000000    -0.0808879  
C682     C      0.029800000000     0.835650000000     0.517320000000     0.0709623  
C683     C      0.021260000000     0.864460000000     0.504320000000     0.0704632  
C684     C      0.004690000000     0.856680000000     0.529010000000    -0.0791106  
C685     C      0.137640000000     0.981920000000     0.452580000000    -0.0809834  
C686     C      0.152120000000     0.984620000000     0.479000000000     0.0364657  
C687     C      0.154340000000     0.966040000000     0.488300000000    -0.0810239  
C688     C      0.141250000000     0.945060000000     0.472700000000     0.0712121  
C689     C      0.124910000000     0.960680000000     0.437300000000     0.0710958  
C690     C      0.162960000000     0.005740000000     0.499160000000     0.0365587  
C691     C      0.185130000000     0.014720000000     0.511630000000    -0.0811939  
C692     C      0.193560000000     0.032370000000     0.534800000000     0.0710978  
C693     C      0.159090000000     0.033140000000     0.532330000000     0.0711401  
C694     C      0.150210000000     0.015670000000     0.508990000000    -0.0810654  
C695     C      0.306040000000     0.836110000000     0.193700000000    -0.0811911  
C696     C      0.312990000000     0.822230000000     0.178140000000     0.0365883  
C697     C      0.300490000000     0.798740000000     0.184070000000    -0.0809826  
C698     C      0.282490000000     0.789840000000     0.206650000000     0.0712935  
C699     C      0.287890000000     0.826610000000     0.216120000000     0.0714131  
C700     C      0.334470000000     0.832300000000     0.158600000000     0.0363692  
C701     C      0.336260000000     0.821480000000     0.130260000000    -0.0808508  
C702     C      0.357470000000     0.829720000000     0.114910000000     0.0709406  
C703     C      0.374920000000     0.859560000000     0.154170000000     0.0709843  
C704     C      0.354040000000     0.851880000000     0.169990000000    -0.0809037  
C705     C      0.130730000000     0.636680000000     0.208550000000    -0.0806646  
C706     C      0.153750000000     0.648100000000     0.218070000000     0.0363295  
C707     C      0.168270000000     0.641540000000     0.203650000000    -0.0809037  
C708     C      0.160000000000     0.624720000000     0.179360000000     0.0707586  
C709     C      0.122960000000     0.619760000000     0.184240000000     0.0705464  
C710     C      0.163250000000     0.668100000000     0.240530000000     0.0365198  
C711     C      0.157200000000     0.684800000000     0.236580000000    -0.0807638  
C712     C      0.169050000000     0.705330000000     0.253810000000     0.0713317  
C713     C      0.191580000000     0.692620000000     0.280640000000     0.0712153  
C714     C      0.180130000000     0.671900000000     0.263720000000    -0.0810413  
C715     C      0.325810000000     0.819520000000     0.489830000000    -0.0812047  
C716     C      0.331420000000     0.814510000000     0.458970000000     0.0362927  
C717     C      0.353680000000     0.818820000000     0.453880000000    -0.0811147  
C718     C      0.369830000000     0.828320000000     0.479210000000     0.0708686  
C719     C      0.342430000000     0.829290000000     0.514410000000     0.0708102  
C720     C      0.314470000000     0.806080000000     0.431760000000     0.0361847  
C721     C      0.291810000000     0.788800000000     0.437120000000    -0.0810011  
C722     C      0.275780000000     0.782260000000     0.411660000000     0.0708202  
C723     C      0.304070000000     0.809480000000     0.375840000000     0.0708287  
C724     C      0.320570000000     0.816190000000     0.400530000000    -0.0811751  
C725     C      0.171530000000     0.825360000000     0.322930000000    -0.0804186  
C726     C      0.164970000000     0.824250000000     0.356030000000     0.0362951  
C727     C      0.172890000000     0.814460000000     0.379030000000    -0.0806315  
C728     C      0.186660000000     0.805840000000     0.368740000000     0.07074    
C729     C      0.185480000000     0.816730000000     0.313540000000     0.0708612  
C730     C      0.149880000000     0.833110000000     0.366480000000     0.036417   
C731     C      0.151880000000     0.852740000000     0.352020000000    -0.0807853  
C732     C      0.137490000000     0.860710000000     0.361980000000     0.0709048  
C733     C      0.119270000000     0.830550000000     0.400560000000     0.0710346  
C734     C      0.133260000000     0.821990000000     0.391010000000    -0.0804681  
C735     C      0.678090000000     0.485350000000     0.373880000000    -0.080903   
C736     C      0.668500000000     0.498360000000     0.383890000000     0.0364824  
C737     C      0.677540000000     0.520390000000     0.371030000000    -0.0811964  
C738     C      0.694980000000     0.528460000000     0.347480000000     0.071029   
C739     C      0.695350000000     0.493860000000     0.350140000000     0.0708621  
C740     C      0.647700000000     0.487990000000     0.404860000000     0.0364355  
C741     C      0.629070000000     0.490370000000     0.396240000000    -0.0810144  
C742     C      0.608340000000     0.477760000000     0.412780000000     0.0712219  
C743     C      0.624360000000     0.461600000000     0.447760000000     0.0709868  
C744     C      0.645350000000     0.473850000000     0.431530000000    -0.0808861  
C745     C      0.798600000000     0.479470000000     0.285520000000    -0.081148   
C746     C      0.815400000000     0.491800000000     0.309320000000     0.036516   
C747     C      0.821290000000     0.514340000000     0.315740000000    -0.0809039  
C748     C      0.809380000000     0.523490000000     0.300330000000     0.0711644  
C749     C      0.787090000000     0.489230000000     0.270420000000     0.0710556  
C750     C      0.824840000000     0.480570000000     0.330140000000     0.0362853  
C751     C      0.810270000000     0.458840000000     0.343100000000    -0.0809004  
C752     C      0.818310000000     0.449850000000     0.366910000000     0.0708245  
C753     C      0.855290000000     0.482630000000     0.363910000000     0.0705762  
C754     C      0.847770000000     0.492230000000     0.340130000000    -0.0809529  
C755     C      0.972600000000     0.796390000000     0.008530000000    -0.0804773  
C756     C      0.981990000000     0.818550000000     0.996070000000     0.034547   
C757     C      0.972550000000     0.831700000000     0.006110000000    -0.0805145  
C758     C      0.955090000000     0.823150000000     0.029510000000     0.0705804  
C759     C      0.954930000000     0.788270000000     0.031710000000     0.0702527  
C760     C      0.002940000000     0.828900000000     0.975480000000     0.0378965  
C761     C      0.021500000000     0.826530000000     0.984550000000    -0.0812478  
C762     C      0.042400000000     0.839240000000     0.968430000000     0.0715306  
C763     C      0.026630000000     0.855400000000     0.932950000000     0.0707726  
C764     C      0.005500000000     0.843080000000     0.948770000000    -0.079414   
C765     C      0.821800000000     0.790050000000     0.057220000000    -0.0807874  
C766     C      0.826990000000     0.812770000000     0.057240000000     0.0363835  
C767     C      0.845520000000     0.828560000000     0.076400000000    -0.0800762  
C768     C      0.858940000000     0.821750000000     0.093450000000     0.0710844  
C769     C      0.835790000000     0.783920000000     0.074100000000     0.0710243  
C770     C      0.814400000000     0.820340000000     0.035400000000     0.0365944  
C771     C      0.806800000000     0.810500000000     0.004120000000    -0.0806366  
C772     C      0.797580000000     0.819520000000     0.982230000000     0.0713565  
C773     C      0.802300000000     0.847290000000     0.021670000000     0.0712297  
C774     C      0.811330000000     0.838500000000     0.044380000000    -0.080762   
C775     C      0.967970000000     0.838770000000     0.250550000000    -0.0815077  
C776     C      0.983190000000     0.830930000000     0.256020000000     0.0378671  
C777     C      0.982480000000     0.814370000000     0.234810000000    -0.0826238  
C778     C      0.966620000000     0.805740000000     0.209230000000     0.0709842  
C779     C      0.952070000000     0.829550000000     0.224760000000     0.0705827  
C780     C      0.999390000000     0.839290000000     0.284160000000     0.0310521  
C781     C      0.012940000000     0.862590000000     0.291090000000    -0.0769969  
C782     C      0.028840000000     0.869900000000     0.316910000000     0.0692684  
C783     C      0.017610000000     0.831620000000     0.329590000000     0.0690511  
C784     C      0.001810000000     0.823790000000     0.303900000000    -0.0759832  
C785     C      0.832250000000     0.688430000000     0.198440000000    -0.0809062  
C786     C      0.833590000000     0.670310000000     0.184440000000     0.0365068  
C787     C      0.849120000000     0.675120000000     0.158560000000    -0.080748   
C788     C      0.862590000000     0.697430000000     0.147150000000     0.0710725  
C789     C      0.846190000000     0.710570000000     0.186700000000     0.0711537  
C790     C      0.818780000000     0.646540000000     0.196560000000     0.0363926  
C791     C      0.812980000000     0.642080000000     0.230070000000    -0.0806032  
C792     C      0.798760000000     0.619720000000     0.240850000000     0.0711538  
C793     C      0.796230000000     0.605890000000     0.186390000000     0.0710182  
C794     C      0.810150000000     0.628040000000     0.174690000000    -0.0807951  
C795     C      0.688160000000     0.519110000000     0.829860000000    -0.0809359  
C796     C      0.668430000000     0.499000000000     0.820370000000     0.0364613  
C797     C      0.669630000000     0.486980000000     0.793080000000    -0.0809611  
C798     C      0.690480000000     0.494600000000     0.776970000000     0.0711012  
C799     C      0.708710000000     0.526120000000     0.813390000000     0.0710445  
C800     C      0.647470000000     0.489620000000     0.840910000000     0.0363711  
C801     C      0.635710000000     0.466540000000     0.849630000000    -0.0809786  
C802     C      0.618090000000     0.458480000000     0.872770000000     0.0709514  
C803     C      0.622420000000     0.495180000000     0.877440000000     0.0708016  
C804     C      0.640270000000     0.503870000000     0.854500000000    -0.0808984  
C805     C      0.490380000000     0.355530000000     0.903530000000    -0.0808818  
C806     C      0.495580000000     0.338440000000     0.909800000000     0.0364094  
C807     C      0.511990000000     0.342400000000     0.933880000000    -0.0810654  
C808     C      0.523820000000     0.363590000000     0.949490000000     0.0711318  
C809     C      0.502640000000     0.376540000000     0.919410000000     0.0711966  
C810     C      0.485790000000     0.317800000000     0.888650000000     0.0365237  
C811     C      0.462830000000     0.306580000000     0.878950000000    -0.0811754  
C812     C      0.454890000000     0.289210000000     0.855360000000     0.0709386  
C813     C      0.491630000000     0.293310000000     0.851680000000     0.0709982  
C814     C      0.500060000000     0.310540000000     0.875350000000    -0.0811835  
C815     C      0.632180000000     0.458810000000     0.092020000000    -0.0807437  
C816     C      0.646930000000     0.481990000000     0.098540000000     0.0362246  
C817     C      0.645490000000     0.498060000000     0.078760000000    -0.0816376  
C818     C      0.629500000000     0.490870000000     0.053340000000     0.0709416  
C819     C      0.616140000000     0.452180000000     0.066520000000     0.0704642  
C820     C      0.663520000000     0.489650000000     0.126150000000     0.0363703  
C821     C      0.665750000000     0.506840000000     0.147440000000    -0.0817505  
C822     C      0.682000000000     0.514690000000     0.172550000000     0.0709501  
C823     C      0.693940000000     0.488890000000     0.156260000000     0.0706968  
C824     C      0.677630000000     0.480430000000     0.131000000000    -0.0809038  
C825     C      0.350220000000     0.497380000000     0.208940000000    -0.0808525  
C826     C      0.338070000000     0.508340000000     0.216920000000     0.0364231  
C827     C      0.343790000000     0.528700000000     0.200680000000    -0.0808578  
C828     C      0.360400000000     0.537020000000     0.176020000000     0.0708387  
C829     C      0.366820000000     0.506240000000     0.184120000000     0.0707267  
C830     C      0.318040000000     0.497630000000     0.239460000000     0.0365572  
C831     C      0.302290000000     0.474240000000     0.237380000000    -0.0807284  
C832     C      0.281620000000     0.464950000000     0.254380000000     0.0715168  
C833     C      0.292300000000     0.501020000000     0.277380000000     0.0710753  
C834     C      0.313170000000     0.510900000000     0.260680000000    -0.0810433  
C835     C      0.498350000000     0.635940000000     0.145850000000    -0.0810631  
C836     C      0.493070000000     0.653280000000     0.148790000000     0.0363957  
C837     C      0.473890000000     0.650730000000     0.131810000000    -0.0800596  
C838     C      0.459820000000     0.630670000000     0.114350000000     0.0710242  
C839     C      0.483700000000     0.616000000000     0.128720000000     0.0712968  
C840     C      0.506160000000     0.672760000000     0.171820000000     0.0364987  
C841     C      0.514440000000     0.669420000000     0.201750000000    -0.0806735  
C842     C      0.524290000000     0.686910000000     0.224980000000     0.0710413  
C843     C      0.518820000000     0.711420000000     0.189540000000     0.0708463  
C844     C      0.509080000000     0.694330000000     0.165520000000    -0.0806635  
C845     C      0.315740000000     0.485820000000     0.903970000000    -0.0816758  
C846     C      0.317120000000     0.503180000000     0.924060000000     0.0362068  
C847     C      0.302460000000     0.511570000000     0.917670000000    -0.0806326  
C848     C      0.286420000000     0.502090000000     0.892090000000     0.0703679  
C849     C      0.299810000000     0.476990000000     0.878490000000     0.0709026  
C850     C      0.333330000000     0.511710000000     0.952140000000     0.0363296  
C851     C      0.334510000000     0.496220000000     0.973500000000    -0.0817805  
C852     C      0.350420000000     0.504090000000     0.999030000000     0.070942   
C853     C      0.364170000000     0.542380000000     0.983000000000     0.0705786  
C854     C      0.348160000000     0.535060000000     0.957320000000    -0.0807558  
C855     C      0.464420000000     0.490330000000     0.053700000000    -0.0806624  
C856     C      0.480810000000     0.501000000000     0.028760000000     0.0364174  
C857     C      0.483140000000     0.520770000000     0.014270000000    -0.0807146  
C858     C      0.469380000000     0.529360000000     0.024710000000     0.0710902  
C859     C      0.451140000000     0.499560000000     0.063820000000     0.0710943  
C860     C      0.495530000000     0.491720000000     0.018170000000     0.0364893  
C861     C      0.503070000000     0.481520000000     0.041040000000    -0.0807852  
C862     C      0.516920000000     0.472990000000     0.030770000000     0.071065   
C863     C      0.516470000000     0.484670000000     0.975820000000     0.0712727  
C864     C      0.502360000000     0.493110000000     0.985150000000    -0.080653   
Cd1      Cd     0.413710000000     0.547100000000     0.081760000000     0.511413   
Cd2      Cd     0.566550000000     0.449010000000     0.969390000000     0.511008   
Cd3      Cd     0.902930000000     0.782740000000     0.126450000000     0.511229   
Cd4      Cd     0.746620000000     0.533900000000     0.252170000000     0.51132    
Cd5      Cd     0.232330000000     0.777460000000     0.306010000000     0.509847   
Cd6      Cd     0.078480000000     0.875320000000     0.415580000000     0.51183    
Cd7      Cd     0.566600000000     0.119810000000     0.465770000000     0.511117   
Cd8      Cd     0.414590000000     0.868180000000     0.583600000000     0.510097   
Cd9      Cd     0.903530000000     0.116730000000     0.634810000000     0.509645   
Cd10     Cd     0.743820000000     0.205460000000     0.752490000000     0.511595   
Cd11     Cd     0.236800000000     0.454650000000     0.794650000000     0.511221   
Cd12     Cd     0.084770000000     0.203550000000     0.914640000000     0.510771   
Cd13     Cd     0.871120000000     0.781790000000     0.638470000000     0.509468   
Cd14     Cd     0.775180000000     0.530160000000     0.751200000000     0.511994   
Cd15     Cd     0.197610000000     0.109030000000     0.130000000000     0.511862   
Cd16     Cd     0.448820000000     0.208610000000     0.250250000000     0.508999   
Cd17     Cd     0.858990000000     0.438840000000     0.463500000000     0.510978   
Cd18     Cd     0.110690000000     0.535620000000     0.579100000000     0.509825   
Cd19     Cd     0.110310000000     0.199880000000     0.414100000000     0.511206   
Cd20     Cd     0.207400000000     0.452040000000     0.303390000000     0.509436   
Cd21     Cd     0.442790000000     0.867430000000     0.091310000000     0.512113   
Cd22     Cd     0.537130000000     0.117880000000     0.973530000000     0.510503   
Cd23     Cd     0.784530000000     0.874720000000     0.915060000000     0.509214   
Cd24     Cd     0.532100000000     0.780810000000     0.803960000000     0.511686   
Cd25     Cd     0.117290000000     0.569990000000     0.085980000000     0.511318   
Cd26     Cd     0.865180000000     0.412670000000     0.971200000000     0.509262   
Cd27     Cd     0.199550000000     0.083680000000     0.630510000000     0.511535   
Cd28     Cd     0.448680000000     0.238430000000     0.758640000000     0.511927   
Cd29     Cd     0.205600000000     0.744790000000     0.796490000000     0.511583   
Cd30     Cd     0.111830000000     0.901240000000     0.909530000000     0.511581   
Cd31     Cd     0.539220000000     0.416250000000     0.472710000000     0.511998   
Cd32     Cd     0.446500000000     0.574180000000     0.582830000000     0.51096    
Cd33     Cd     0.877940000000     0.084970000000     0.133510000000     0.511684   
Cd34     Cd     0.773650000000     0.232620000000     0.245350000000     0.508854   
Cd35     Cd     0.792250000000     0.908110000000     0.420030000000     0.511813   
Cd36     Cd     0.541280000000     0.753410000000     0.300000000000     0.50977    
H1       H      0.693320000000     0.825730000000     0.331380000000     0.0558918  
H2       H      0.732080000000     0.849330000000     0.350850000000     0.035582   
H3       H      0.710800000000     0.884540000000     0.415880000000     0.0361754  
H4       H      0.672010000000     0.862130000000     0.395750000000     0.0557656  
H5       H      0.639570000000     0.826130000000     0.397510000000     0.055853   
H6       H      0.600780000000     0.802180000000     0.378600000000     0.0354432  
H7       H      0.624760000000     0.799040000000     0.282240000000     0.0354385  
H8       H      0.663880000000     0.824060000000     0.299730000000     0.055838   
H9       H      0.857820000000     0.973990000000     0.278300000000     0.056726   
H10      H      0.843020000000     0.945930000000     0.322860000000     0.0356329  
H11      H      0.801500000000     0.972570000000     0.356680000000     0.035827   
H12      H      0.815770000000     0.000480000000     0.312860000000     0.0566844  
H13      H      0.811350000000     0.998160000000     0.251340000000     0.0568087  
H14      H      0.823550000000     0.025900000000     0.207330000000     0.0356317  
H15      H      0.893310000000     0.045690000000     0.224840000000     0.035912   
H16      H      0.881530000000     0.017780000000     0.269370000000     0.0566842  
H17      H      0.812590000000     0.171890000000     0.145170000000     0.0559487  
H18      H      0.796120000000     0.194330000000     0.163280000000     0.0358503  
H19      H      0.818190000000     0.194340000000     0.262120000000     0.0355602  
H20      H      0.834080000000     0.171080000000     0.245210000000     0.0559105  
H21      H      0.863610000000     0.170530000000     0.215220000000     0.0557614  
H22      H      0.878180000000     0.146170000000     0.198220000000     0.0353069  
H23      H      0.822680000000     0.111450000000     0.130530000000     0.0364327  
H24      H      0.807070000000     0.134840000000     0.147830000000     0.0561492  
H25      H      0.514500000000     0.675180000000     0.488710000000     0.0561637  
H26      H      0.500420000000     0.646140000000     0.530930000000     0.0354096  
H27      H      0.436320000000     0.608980000000     0.480900000000     0.0358443  
H28      H      0.450140000000     0.637770000000     0.437530000000     0.0562148  
H29      H      0.525790000000     0.677370000000     0.431510000000     0.056566   
H30      H      0.541690000000     0.705090000000     0.387660000000     0.0362458  
H31      H      0.479470000000     0.706250000000     0.380410000000     0.0354085  
H32      H      0.462960000000     0.678450000000     0.425040000000     0.0560741  
H33      H      0.471260000000     0.469430000000     0.486810000000     0.0560991  
H34      H      0.485590000000     0.444880000000     0.469690000000     0.0363295  
H35      H      0.541230000000     0.478100000000     0.537530000000     0.0355306  
H36      H      0.527970000000     0.503550000000     0.554330000000     0.0559668  
H37      H      0.499110000000     0.505400000000     0.584120000000     0.0560435  
H38      H      0.485320000000     0.530500000000     0.600610000000     0.0362372  
H39      H      0.463960000000     0.531470000000     0.501640000000     0.0353347  
H40      H      0.478380000000     0.507130000000     0.483920000000     0.0559733  
H41      H      0.175850000000     0.813030000000     0.896260000000     0.0558825  
H42      H      0.190750000000     0.789290000000     0.877760000000     0.035297   
H43      H      0.164150000000     0.786040000000     0.780990000000     0.0363453  
H44      H      0.149980000000     0.810690000000     0.798080000000     0.0559559  
H45      H      0.180940000000     0.849570000000     0.893070000000     0.0560093  
H46      H      0.166220000000     0.873630000000     0.910820000000     0.0363715  
H47      H      0.108810000000     0.838170000000     0.846500000000     0.0354448  
H48      H      0.122340000000     0.813020000000     0.829350000000     0.0559172  
H49      H      0.470250000000     0.328410000000     0.647250000000     0.056625   
H50      H      0.455200000000     0.300240000000     0.690710000000     0.0356832  
H51      H      0.502630000000     0.278790000000     0.665730000000     0.0358536  
H52      H      0.518170000000     0.307050000000     0.621530000000     0.0566243  
H53      H      0.539700000000     0.350160000000     0.612430000000     0.0565749  
H54      H      0.552520000000     0.378150000000     0.567930000000     0.0359707  
H55      H      0.483090000000     0.355310000000     0.542370000000     0.0357232  
H56      H      0.469840000000     0.327370000000     0.586170000000     0.0565776  
H57      H      0.178710000000     0.987820000000     0.791500000000     0.0566869  
H58      H      0.166310000000     0.959660000000     0.834930000000     0.0356332  
H59      H      0.096830000000     0.941590000000     0.819250000000     0.0359139  
H60      H      0.108810000000     0.969900000000     0.775290000000     0.0566013  
H61      H      0.174570000000     0.987430000000     0.730380000000     0.0565345  
H62      H      0.189270000000     0.016590000000     0.688230000000     0.0355973  
H63      H      0.147800000000     0.042530000000     0.724870000000     0.0358861  
H64      H      0.132640000000     0.013310000000     0.767750000000     0.0566589  
H65      H      0.295700000000     0.149240000000     0.736350000000     0.0559341  
H66      H      0.257240000000     0.125930000000     0.715450000000     0.0353261  
H67      H      0.283200000000     0.129000000000     0.618220000000     0.0362527  
H68      H      0.321900000000     0.153210000000     0.637900000000     0.0560246  
H69      H      0.351110000000     0.153580000000     0.669580000000     0.0559598  
H70      H      0.389650000000     0.177930000000     0.689610000000     0.0354055  
H71      H      0.366060000000     0.209720000000     0.757330000000     0.036359   
H72      H      0.327440000000     0.186400000000     0.736920000000     0.0559895  
H73      H      0.780070000000     0.316420000000     0.062560000000     0.0558091  
H74      H      0.798500000000     0.345540000000     0.020300000000     0.0351513  
H75      H      0.854150000000     0.385590000000     0.085700000000     0.035804   
H76      H      0.836480000000     0.356810000000     0.128150000000     0.0561936  
H77      H      0.786660000000     0.287970000000     0.089020000000     0.0561523  
H78      H      0.774440000000     0.258500000000     0.130860000000     0.0358237  
H79      H      0.792570000000     0.308370000000     0.206910000000     0.0351157  
H80      H      0.804540000000     0.338150000000     0.165830000000     0.0557364  
H81      H      0.137820000000     0.656980000000     0.969430000000     0.0568856  
H82      H      0.123310000000     0.630050000000     0.014520000000     0.0358773  
H83      H      0.169670000000     0.607140000000     0.990160000000     0.0357951  
H84      H      0.184770000000     0.634260000000     0.944440000000     0.0566829  
H85      H      0.206610000000     0.677890000000     0.934540000000     0.0567638  
H86      H      0.219220000000     0.705680000000     0.889780000000     0.0360811  
H87      H      0.149670000000     0.681710000000     0.863480000000     0.0357042  
H88      H      0.136640000000     0.654030000000     0.907680000000     0.0567513  
H89      H      0.996280000000     0.519130000000     0.063860000000     0.0545005  
H90      H      0.035200000000     0.543540000000     0.082180000000     0.0366685  
H91      H      0.057250000000     0.506480000000     0.022480000000     0.0355564  
H92      H      0.018340000000     0.480880000000     0.004980000000     0.0563268  
H93      H      0.988120000000     0.476620000000     0.972610000000     0.0551153  
H94      H      0.948850000000     0.451400000000     0.955980000000     0.0353559  
H95      H      0.925490000000     0.458840000000     0.050620000000     0.0361585  
H96      H      0.964430000000     0.483030000000     0.068800000000     0.0553419  
H97      H      0.467620000000     0.660900000000     0.768630000000     0.056277   
H98      H      0.482020000000     0.697140000000     0.797090000000     0.0361655  
H99      H      0.541450000000     0.727120000000     0.735660000000     0.0355046  
H100     H      0.527580000000     0.691430000000     0.706680000000     0.0565146  
H101     H      0.452500000000     0.647960000000     0.712650000000     0.0564812  
H102     H      0.437860000000     0.617570000000     0.672250000000     0.0351999  
H103     H      0.502470000000     0.621030000000     0.668760000000     0.0358617  
H104     H      0.517690000000     0.651430000000     0.709570000000     0.0561535  
H105     H      0.793550000000     0.970520000000     0.000650000000     0.0566088  
H106     H      0.777960000000     0.934990000000     0.970600000000     0.0358184  
H107     H      0.843570000000     0.956050000000     0.928870000000     0.0351633  
H108     H      0.859750000000     0.992100000000     0.958250000000     0.0559983  
H109     H      0.868200000000     0.002090000000     0.016270000000     0.0564875  
H110     H      0.882760000000     0.032080000000     0.057150000000     0.0353605  
H111     H      0.825990000000     0.041720000000     0.041030000000     0.0359129  
H112     H      0.811000000000     0.011830000000     0.999380000000     0.0560419  
H113     H      0.661560000000     0.816290000000     0.915820000000     0.0557864  
H114     H      0.700850000000     0.830230000000     0.931800000000     0.0354205  
H115     H      0.723970000000     0.862610000000     0.837930000000     0.0361638  
H116     H      0.685010000000     0.848000000000     0.820370000000     0.0558081  
H117     H      0.653250000000     0.851910000000     0.826410000000     0.0558477  
H118     H      0.614310000000     0.837250000000     0.808390000000     0.0362351  
H119     H      0.592240000000     0.777030000000     0.865980000000     0.0354321  
H120     H      0.631170000000     0.790500000000     0.883150000000     0.0557092  
H121     H      0.462010000000     0.123320000000     0.853820000000     0.0561218  
H122     H      0.477980000000     0.108260000000     0.893290000000     0.0358452  
H123     H      0.543760000000     0.168100000000     0.882660000000     0.0351837  
H124     H      0.528390000000     0.183760000000     0.843700000000     0.0564901  
H125     H      0.453730000000     0.154130000000     0.856460000000     0.0563809  
H126     H      0.439890000000     0.176110000000     0.828390000000     0.0355203  
H127     H      0.496960000000     0.203310000000     0.762530000000     0.0362114  
H128     H      0.511220000000     0.181170000000     0.789870000000     0.0562225  
H129     H      0.462080000000     0.790120000000     0.261110000000     0.0558328  
H130     H      0.479320000000     0.770920000000     0.288900000000     0.0356275  
H131     H      0.545280000000     0.821650000000     0.254170000000     0.0359481  
H132     H      0.528650000000     0.840910000000     0.225510000000     0.0565277  
H133     H      0.508850000000     0.861990000000     0.226700000000     0.0559599  
H134     H      0.493540000000     0.876690000000     0.185520000000     0.0358858  
H135     H      0.439950000000     0.808920000000     0.163700000000     0.0354951  
H136     H      0.454920000000     0.793690000000     0.203850000000     0.056347   
H137     H      0.509700000000     0.849020000000     0.914250000000     0.056557   
H138     H      0.524700000000     0.836030000000     0.870740000000     0.0357859  
H139     H      0.480010000000     0.766750000000     0.899420000000     0.0358474  
H140     H      0.464570000000     0.779320000000     0.943740000000     0.0565373  
H141     H      0.441790000000     0.799230000000     0.953250000000     0.0565275  
H142     H      0.429080000000     0.814320000000     0.997850000000     0.035908   
H143     H      0.498440000000     0.864630000000     0.018970000000     0.0357257  
H144     H      0.511580000000     0.850050000000     0.975090000000     0.0566743  
H145     H      0.511380000000     0.989200000000     0.074080000000     0.0560257  
H146     H      0.496950000000     0.950340000000     0.092290000000     0.0362835  
H147     H      0.440000000000     0.926850000000     0.026830000000     0.0355315  
H148     H      0.453360000000     0.965520000000     0.009000000000     0.0559618  
H149     H      0.481820000000     0.995660000000     0.977540000000     0.0560165  
H150     H      0.495950000000     0.034480000000     0.959560000000     0.0362374  
H151     H      0.519780000000     0.058890000000     0.057160000000     0.0353156  
H152     H      0.505060000000     0.020230000000     0.076390000000     0.0558975  
H153     H      0.181230000000     0.518260000000     0.138150000000     0.0560467  
H154     H      0.169530000000     0.540980000000     0.107020000000     0.0362344  
H155     H      0.100980000000     0.499540000000     0.141580000000     0.0352463  
H156     H      0.111680000000     0.475650000000     0.171540000000     0.0556218  
H157     H      0.131040000000     0.477930000000     0.219820000000     0.0559212  
H158     H      0.145830000000     0.461700000000     0.258520000000     0.0350608  
H159     H      0.196260000000     0.469050000000     0.188520000000     0.035033   
H160     H      0.181190000000     0.484390000000     0.148270000000     0.0557625  
H161     H      0.130160000000     0.133080000000     0.598720000000     0.0562041  
H162     H      0.145790000000     0.112350000000     0.626580000000     0.0360215  
H163     H      0.208940000000     0.151510000000     0.574900000000     0.0356748  
H164     H      0.193860000000     0.172280000000     0.546440000000     0.0566929  
H165     H      0.179010000000     0.198420000000     0.548410000000     0.0560484  
H166     H      0.163560000000     0.212250000000     0.506130000000     0.0358697  
H167     H      0.103560000000     0.146280000000     0.499580000000     0.0356732  
H168     H      0.118470000000     0.131910000000     0.541250000000     0.0567184  
H169     H      0.123840000000     0.298980000000     0.331100000000     0.0558093  
H170     H      0.109520000000     0.260060000000     0.348520000000     0.035583   
H171     H      0.168210000000     0.281400000000     0.409690000000     0.0362434  
H172     H      0.183790000000     0.320310000000     0.391410000000     0.0557437  
H173     H      0.180170000000     0.352110000000     0.396460000000     0.0558662  
H174     H      0.195100000000     0.391100000000     0.379370000000     0.036148   
H175     H      0.164580000000     0.368800000000     0.284200000000     0.035429   
H176     H      0.150400000000     0.329480000000     0.299700000000     0.0557394  
H177     H      0.186710000000     0.653020000000     0.619240000000     0.0558227  
H178     H      0.170160000000     0.616860000000     0.590150000000     0.0356752  
H179     H      0.104570000000     0.596990000000     0.630930000000     0.0360588  
H180     H      0.120540000000     0.632480000000     0.660970000000     0.0565594  
H181     H      0.138140000000     0.673160000000     0.661660000000     0.0559741  
H182     H      0.153270000000     0.702510000000     0.704040000000     0.0359341  
H183     H      0.210510000000     0.693260000000     0.717440000000     0.0353945  
H184     H      0.195700000000     0.663610000000     0.676090000000     0.05635    
H185     H      0.195210000000     0.542470000000     0.463780000000     0.0560899  
H186     H      0.175650000000     0.553620000000     0.503620000000     0.0354324  
H187     H      0.114100000000     0.489580000000     0.490230000000     0.0363472  
H188     H      0.132920000000     0.478070000000     0.450650000000     0.0570143  
H189     H      0.163190000000     0.467950000000     0.454050000000     0.0566637  
H190     H      0.178310000000     0.453260000000     0.413060000000     0.0357798  
H191     H      0.210020000000     0.517170000000     0.362350000000     0.035248   
H192     H      0.194900000000     0.532460000000     0.403140000000     0.0561333  
H193     H      0.865290000000     0.347170000000     0.388620000000     0.055312   
H194     H      0.875650000000     0.382170000000     0.417600000000     0.0348952  
H195     H      0.805490000000     0.357750000000     0.440140000000     0.03622    
H196     H      0.794260000000     0.323080000000     0.409690000000     0.0559762  
H197     H      0.792210000000     0.288330000000     0.401620000000     0.0555982  
H198     H      0.778250000000     0.258480000000     0.360290000000     0.0349677  
H199     H      0.835750000000     0.300140000000     0.298760000000     0.035418   
H200     H      0.849570000000     0.330750000000     0.338370000000     0.0556518  
H201     H      0.958070000000     0.454280000000     0.549520000000     0.0558575  
H202     H      0.919150000000     0.439500000000     0.531300000000     0.0353628  
H203     H      0.940930000000     0.495890000000     0.465500000000     0.0360352  
H204     H      0.979890000000     0.511930000000     0.484410000000     0.0556149  
H205     H      0.011830000000     0.508040000000     0.482000000000     0.0555822  
H206     H      0.050760000000     0.523130000000     0.500220000000     0.0359182  
H207     H      0.027410000000     0.496330000000     0.597000000000     0.0363312  
H208     H      0.988240000000     0.482070000000     0.580260000000     0.0535234  
H209     H      0.529860000000     0.333700000000     0.355460000000     0.0564164  
H210     H      0.543830000000     0.363020000000     0.397240000000     0.035473   
H211     H      0.488620000000     0.374600000000     0.378010000000     0.0359063  
H212     H      0.474250000000     0.345410000000     0.335290000000     0.0559686  
H213     H      0.455930000000     0.304120000000     0.334030000000     0.0566182  
H214     H      0.440870000000     0.269080000000     0.302820000000     0.0357606  
H215     H      0.507760000000     0.289450000000     0.266890000000     0.0349683  
H216     H      0.523390000000     0.325020000000     0.297270000000     0.0560463  
H217     H      0.517420000000     0.173560000000     0.163260000000     0.0562145  
H218     H      0.502200000000     0.186440000000     0.206890000000     0.0352467  
H219     H      0.474810000000     0.212280000000     0.135320000000     0.0358113  
H220     H      0.490050000000     0.199810000000     0.090980000000     0.0560895  
H221     H      0.479830000000     0.162060000000     0.069490000000     0.0565313  
H222     H      0.489740000000     0.143310000000     0.027480000000     0.0354226  
H223     H      0.554040000000     0.165390000000     0.074380000000     0.0358172  
H224     H      0.544680000000     0.184600000000     0.116970000000     0.0559845  
H225     H      0.194110000000     0.019280000000     0.034820000000     0.0567979  
H226     H      0.208010000000     0.054800000000     0.064430000000     0.035529   
H227     H      0.146520000000     0.025690000000     0.121380000000     0.0362403  
H228     H      0.132060000000     0.989710000000     0.092160000000     0.0565798  
H229     H      0.182180000000     0.978190000000     0.037980000000     0.0563266  
H230     H      0.167110000000     0.947970000000     0.996760000000     0.0358736  
H231     H      0.104710000000     0.948990000000     0.993170000000     0.0354116  
H232     H      0.119160000000     0.979050000000     0.034050000000     0.0568421  
H233     H      0.107470000000     0.131620000000     0.274360000000     0.0567898  
H234     H      0.095160000000     0.147400000000     0.318640000000     0.0358591  
H235     H      0.164660000000     0.190340000000     0.348490000000     0.0358027  
H236     H      0.177360000000     0.175130000000     0.304920000000     0.0568158  
H237     H      0.177880000000     0.177730000000     0.243100000000     0.0568621  
H238     H      0.192770000000     0.164600000000     0.199590000000     0.0357469  
H239     H      0.143160000000     0.095340000000     0.221950000000     0.0359368  
H240     H      0.127680000000     0.108090000000     0.266050000000     0.0568474  
H241     H      0.349970000000     0.170430000000     0.147470000000     0.0559534  
H242     H      0.388820000000     0.186210000000     0.166690000000     0.0356967  
H243     H      0.365000000000     0.165750000000     0.265480000000     0.0355495  
H244     H      0.325890000000     0.150580000000     0.247400000000     0.0560167  
H245     H      0.295250000000     0.121300000000     0.217250000000     0.0558437  
H246     H      0.256490000000     0.107580000000     0.198720000000     0.035415   
H247     H      0.280450000000     0.162460000000     0.129630000000     0.0364681  
H248     H      0.319270000000     0.177230000000     0.148410000000     0.0561705  
H249     H      0.841260000000     0.524720000000     0.886530000000     0.0560259  
H250     H      0.826700000000     0.539460000000     0.844270000000     0.0358637  
H251     H      0.769940000000     0.472440000000     0.827700000000     0.0354945  
H252     H      0.784060000000     0.457180000000     0.869170000000     0.0566308  
H253     H      0.791860000000     0.455910000000     0.927510000000     0.0560787  
H254     H      0.807440000000     0.435860000000     0.957290000000     0.0351206  
H255     H      0.873540000000     0.480690000000     0.916640000000     0.0356373  
H256     H      0.858540000000     0.500820000000     0.886170000000     0.0565834  
H257     H      0.769790000000     0.458190000000     0.615400000000     0.0567559  
H258     H      0.758480000000     0.474370000000     0.660350000000     0.0359128  
H259     H      0.828430000000     0.525250000000     0.676260000000     0.0356847  
H260     H      0.840140000000     0.509700000000     0.631840000000     0.0567901  
H261     H      0.834750000000     0.507300000000     0.570210000000     0.0567914  
H262     H      0.848920000000     0.493820000000     0.526210000000     0.0356934  
H263     H      0.808510000000     0.425360000000     0.561210000000     0.0356427  
H264     H      0.793810000000     0.438460000000     0.605950000000     0.0567632  
H265     H      0.782460000000     0.809590000000     0.497690000000     0.0555534  
H266     H      0.773150000000     0.834690000000     0.468250000000     0.0350962  
H267     H      0.843150000000     0.877480000000     0.440890000000     0.0360331  
H268     H      0.853420000000     0.853490000000     0.471710000000     0.0558039  
H269     H      0.853120000000     0.819350000000     0.481260000000     0.0554726  
H270     H      0.866240000000     0.802820000000     0.522690000000     0.0346296  
H271     H      0.812380000000     0.793300000000     0.587480000000     0.0353691  
H272     H      0.799470000000     0.810600000000     0.547710000000     0.0558372  
H273     H      0.810330000000     0.805700000000     0.759890000000     0.0569361  
H274     H      0.821630000000     0.786900000000     0.720040000000     0.0364449  
H275     H      0.890120000000     0.843410000000     0.720900000000     0.0353288  
H276     H      0.879220000000     0.862950000000     0.761150000000     0.0559202  
H277     H      0.865070000000     0.859450000000     0.820020000000     0.0560411  
H278     H      0.849710000000     0.874110000000     0.861360000000     0.0351476  
H279     H      0.790590000000     0.853890000000     0.801530000000     0.0357373  
H280     H      0.805450000000     0.839340000000     0.759860000000     0.0564881  
H281     H      0.789020000000     0.629980000000     0.670080000000     0.055963   
H282     H      0.774220000000     0.591060000000     0.687890000000     0.035469   
H283     H      0.833120000000     0.611860000000     0.748420000000     0.0362957  
H284     H      0.849030000000     0.650850000000     0.729990000000     0.0558466  
H285     H      0.845280000000     0.683100000000     0.734540000000     0.0559695  
H286     H      0.860190000000     0.721990000000     0.716510000000     0.0353467  
H287     H      0.831010000000     0.698650000000     0.620830000000     0.0355492  
H288     H      0.816700000000     0.659530000000     0.637450000000     0.055904   
H289     H      0.968030000000     0.169630000000     0.035280000000     0.0559501  
H290     H      0.931850000000     0.147450000000     0.063320000000     0.0354398  
H291     H      0.962080000000     0.122280000000     0.131190000000     0.0361548  
H292     H      0.998820000000     0.144540000000     0.103730000000     0.0555289  
H293     H      0.007830000000     0.201080000000     0.038030000000     0.0569203  
H294     H      0.038430000000     0.215400000000     0.997450000000     0.0358771  
H295     H      0.043270000000     0.155570000000     0.009110000000     0.0351187  
H296     H      0.012710000000     0.140690000000     0.049340000000     0.0573934  
H297     H      0.196950000000     0.178400000000     0.996150000000     0.0560631  
H298     H      0.210310000000     0.162510000000     0.038430000000     0.0359523  
H299     H      0.142870000000     0.104980000000     0.048340000000     0.035444   
H300     H      0.128960000000     0.120380000000     0.006740000000     0.0566975  
H301     H      0.129740000000     0.130790000000     0.948920000000     0.0562656  
H302     H      0.110020000000     0.147260000000     0.920450000000     0.0358486  
H303     H      0.152820000000     0.211190000000     0.968110000000     0.035608   
H304     H      0.172600000000     0.195260000000     0.997250000000     0.056641   
H305     H      0.350570000000     0.484740000000     0.665730000000     0.0566599  
H306     H      0.387090000000     0.506150000000     0.638310000000     0.0356151  
H307     H      0.363290000000     0.544300000000     0.585020000000     0.0358553  
H308     H      0.326210000000     0.522850000000     0.611740000000     0.0561315  
H309     H      0.314260000000     0.523460000000     0.668250000000     0.0565661  
H310     H      0.284120000000     0.508440000000     0.709000000000     0.0355049  
H311     H      0.279470000000     0.443470000000     0.704340000000     0.0358627  
H312     H      0.309570000000     0.457920000000     0.662900000000     0.055969   
H313     H      0.182620000000     0.516250000000     0.743640000000     0.0560525  
H314     H      0.206590000000     0.505720000000     0.773940000000     0.0362485  
H315     H      0.163120000000     0.435970000000     0.746650000000     0.035044   
H316     H      0.137990000000     0.445560000000     0.717680000000     0.0556119  
H317     H      0.138620000000     0.462660000000     0.667940000000     0.055911   
H318     H      0.121410000000     0.476040000000     0.628700000000     0.03523    
H319     H      0.132220000000     0.529930000000     0.694100000000     0.034838   
H320     H      0.148610000000     0.516320000000     0.735000000000     0.0556429  
H321     H      0.185650000000     0.333430000000     0.810910000000     0.0560411  
H322     H      0.208880000000     0.372420000000     0.792160000000     0.0363935  
H323     H      0.179420000000     0.394720000000     0.865850000000     0.0355259  
H324     H      0.155220000000     0.355850000000     0.884390000000     0.0560413  
H325     H      0.155190000000     0.325620000000     0.912670000000     0.0560594  
H326     H      0.130920000000     0.286600000000     0.930610000000     0.0362087  
H327     H      0.124600000000     0.263270000000     0.831020000000     0.0353738  
H328     H      0.148010000000     0.302130000000     0.811940000000     0.0560029  
H329     H      0.666760000000     0.196950000000     0.878930000000     0.056574   
H330     H      0.696410000000     0.211720000000     0.837430000000     0.0355215  
H331     H      0.699980000000     0.150850000000     0.842100000000     0.0357994  
H332     H      0.670250000000     0.135500000000     0.884170000000     0.0560825  
H333     H      0.629010000000     0.121740000000     0.882970000000     0.0566545  
H334     H      0.593360000000     0.107350000000     0.912670000000     0.0355656  
H335     H      0.620430000000     0.170180000000     0.965570000000     0.0358359  
H336     H      0.656560000000     0.185070000000     0.936510000000     0.0560715  
H337     H      0.840080000000     0.292800000000     0.838880000000     0.055414   
H338     H      0.815210000000     0.258300000000     0.808610000000     0.0350451  
H339     H      0.776520000000     0.287570000000     0.773040000000     0.0362937  
H340     H      0.800210000000     0.321910000000     0.804430000000     0.0560781  
H341     H      0.834800000000     0.355270000000     0.815210000000     0.0556841  
H342     H      0.850440000000     0.385600000000     0.855880000000     0.035036   
H343     H      0.854980000000     0.341270000000     0.926180000000     0.0350268  
H344     H      0.838390000000     0.310300000000     0.887020000000     0.0557195  
H345     H      0.959810000000     0.137400000000     0.477440000000     0.0553825  
H346     H      0.929890000000     0.123580000000     0.518940000000     0.034844   
H347     H      0.974860000000     0.176260000000     0.585160000000     0.0348212  
H348     H      0.005320000000     0.189870000000     0.545230000000     0.057533   
H349     H      0.021380000000     0.207710000000     0.495390000000     0.0560218  
H350     H      0.055930000000     0.217680000000     0.465190000000     0.0352094  
H351     H      0.028270000000     0.148260000000     0.435830000000     0.0366963  
H352     H      0.993870000000     0.137350000000     0.467270000000     0.0544935  
H353     H      0.816130000000     0.015840000000     0.558780000000     0.0566383  
H354     H      0.835460000000     0.052070000000     0.587120000000     0.0358799  
H355     H      0.884590000000     0.036570000000     0.625790000000     0.0355869  
H356     H      0.865280000000     0.999750000000     0.598330000000     0.055732   
H357     H      0.862990000000     0.989040000000     0.541270000000     0.0564033  
H358     H      0.848480000000     0.959460000000     0.499870000000     0.035626   
H359     H      0.780410000000     0.945380000000     0.517240000000     0.0357657  
H360     H      0.794360000000     0.974740000000     0.559660000000     0.0558983  
H361     H      0.980300000000     0.164020000000     0.826640000000     0.056133   
H362     H      0.009940000000     0.179620000000     0.868110000000     0.0352945  
H363     H      0.050270000000     0.160080000000     0.811090000000     0.0360108  
H364     H      0.020920000000     0.144580000000     0.768450000000     0.0562777  
H365     H      0.976300000000     0.174780000000     0.771350000000     0.0562774  
H366     H      0.948340000000     0.162870000000     0.727770000000     0.0360027  
H367     H      0.952980000000     0.103320000000     0.710990000000     0.0352625  
H368     H      0.981030000000     0.114670000000     0.755240000000     0.0557572  
H369     H      0.832520000000     0.167190000000     0.633580000000     0.0558095  
H370     H      0.858400000000     0.154350000000     0.616750000000     0.0353747  
H371     H      0.853570000000     0.125760000000     0.712450000000     0.0354867  
H372     H      0.828720000000     0.139330000000     0.730720000000     0.055883   
H373     H      0.792330000000     0.134310000000     0.727320000000     0.0557981  
H374     H      0.768740000000     0.149140000000     0.746960000000     0.0362379  
H375     H      0.804550000000     0.207470000000     0.684580000000     0.0354886  
H376     H      0.829300000000     0.193860000000     0.665660000000     0.0557574  
H377     H      0.336320000000     0.863440000000     0.706910000000     0.0559458  
H378     H      0.366910000000     0.878430000000     0.666330000000     0.0356724  
H379     H      0.372740000000     0.819070000000     0.676610000000     0.0352404  
H380     H      0.342030000000     0.803390000000     0.716490000000     0.0564142  
H381     H      0.297100000000     0.832940000000     0.704950000000     0.0563609  
H382     H      0.260790000000     0.810120000000     0.732190000000     0.0356755  
H383     H      0.290070000000     0.781900000000     0.796350000000     0.0359358  
H384     H      0.327060000000     0.805000000000     0.769940000000     0.0560795  
H385     H      0.462390000000     0.798470000000     0.622040000000     0.0562154  
H386     H      0.442000000000     0.813710000000     0.592290000000     0.0356715  
H387     H      0.483790000000     0.878740000000     0.637650000000     0.0354663  
H388     H      0.504280000000     0.864040000000     0.668000000000     0.0566504  
H389     H      0.529370000000     0.847730000000     0.667940000000     0.056057   
H390     H      0.543370000000     0.832910000000     0.710940000000     0.0359026  
H391     H      0.476290000000     0.775180000000     0.723090000000     0.0353651  
H392     H      0.461780000000     0.789460000000     0.680730000000     0.0566758  
H393     H      0.655410000000     0.187990000000     0.283330000000     0.0558779  
H394     H      0.691730000000     0.207890000000     0.254460000000     0.0349101  
H395     H      0.712510000000     0.164510000000     0.299540000000     0.035759   
H396     H      0.676730000000     0.144640000000     0.329320000000     0.0566038  
H397     H      0.635480000000     0.120530000000     0.329740000000     0.0558458  
H398     H      0.606240000000     0.107010000000     0.372450000000     0.035832   
H399     H      0.616150000000     0.173980000000     0.382290000000     0.0356211  
H400     H      0.645520000000     0.188090000000     0.340480000000     0.0564045  
H401     H      0.483910000000     0.187260000000     0.406100000000     0.0555281  
H402     H      0.468760000000     0.202000000000     0.365100000000     0.0348933  
H403     H      0.452880000000     0.145730000000     0.301530000000     0.0357434  
H404     H      0.468990000000     0.131170000000     0.340790000000     0.0557646  
H405     H      0.468990000000     0.114590000000     0.390340000000     0.0554048  
H406     H      0.493280000000     0.103770000000     0.419030000000     0.0349562  
H407     H      0.539500000000     0.173310000000     0.444570000000     0.0362379  
H408     H      0.516470000000     0.185040000000     0.414420000000     0.0560232  
H409     H      0.677820000000     0.209680000000     0.614590000000     0.0568564  
H410     H      0.705630000000     0.221530000000     0.659470000000     0.0357912  
H411     H      0.681770000000     0.151700000000     0.682650000000     0.0357867  
H412     H      0.654210000000     0.139480000000     0.638350000000     0.0569342  
H413     H      0.657720000000     0.142380000000     0.576060000000     0.0569366  
H414     H      0.629880000000     0.127750000000     0.532000000000     0.0356469  
H415     H      0.605200000000     0.171800000000     0.561240000000     0.0357988  
H416     H      0.633260000000     0.187030000000     0.605880000000     0.0568456  
H417     H      0.475370000000     0.967550000000     0.481810000000     0.055875   
H418     H      0.452010000000     0.928620000000     0.500540000000     0.0353379  
H419     H      0.458480000000     0.951440000000     0.600430000000     0.0360846  
H420     H      0.482730000000     0.990580000000     0.582810000000     0.055922   
H421     H      0.483560000000     0.021350000000     0.554870000000     0.0559051  
H422     H      0.508390000000     0.060210000000     0.536650000000     0.0355108  
H423     H      0.537090000000     0.037300000000     0.462660000000     0.0363668  
H424     H      0.513230000000     0.998330000000     0.481070000000     0.0560272  
H425     H      0.986410000000     0.859990000000     0.590350000000     0.0553877  
H426     H      0.950820000000     0.843480000000     0.621110000000     0.0355233  
H427     H      0.934390000000     0.776710000000     0.590650000000     0.0358685  
H428     H      0.969400000000     0.792570000000     0.559090000000     0.0559346  
H429     H      0.010590000000     0.812820000000     0.556680000000     0.0565359  
H430     H      0.039300000000     0.827000000000     0.513220000000     0.036025   
H431     H      0.023790000000     0.878920000000     0.489750000000     0.0358811  
H432     H      0.994830000000     0.865020000000     0.532190000000     0.0549347  
H433     H      0.165210000000     0.967320000000     0.508730000000     0.0567627  
H434     H      0.142900000000     0.930910000000     0.481470000000     0.0355448  
H435     H      0.113380000000     0.959050000000     0.417590000000     0.0362594  
H436     H      0.135680000000     0.995970000000     0.444360000000     0.0564153  
H437     H      0.195660000000     0.007720000000     0.504270000000     0.0562761  
H438     H      0.210510000000     0.038390000000     0.544690000000     0.0358044  
H439     H      0.148310000000     0.039770000000     0.540190000000     0.0352378  
H440     H      0.132960000000     0.009190000000     0.500120000000     0.0567913  
H441     H      0.305300000000     0.787370000000     0.172740000000     0.0564615  
H442     H      0.273810000000     0.771680000000     0.211440000000     0.0351774  
H443     H      0.283500000000     0.838000000000     0.228490000000     0.0357198  
H444     H      0.314970000000     0.854310000000     0.189330000000     0.0561246  
H445     H      0.321480000000     0.806470000000     0.120370000000     0.056199   
H446     H      0.358320000000     0.820590000000     0.093520000000     0.0361078  
H447     H      0.389740000000     0.874400000000     0.164420000000     0.0355723  
H448     H      0.353530000000     0.860680000000     0.191970000000     0.056419   
H449     H      0.186230000000     0.650040000000     0.209960000000     0.056635   
H450     H      0.172010000000     0.620630000000     0.168240000000     0.0355864  
H451     H      0.105170000000     0.611630000000     0.176990000000     0.0359734  
H452     H      0.118870000000     0.641070000000     0.219350000000     0.0561064  
H453     H      0.144300000000     0.682630000000     0.218880000000     0.0567113  
H454     H      0.164490000000     0.718190000000     0.249000000000     0.0355483  
H455     H      0.205110000000     0.695260000000     0.297470000000     0.0356322  
H456     H      0.185000000000     0.659230000000     0.268000000000     0.0561224  
H457     H      0.358620000000     0.815010000000     0.430390000000     0.05643    
H458     H      0.386940000000     0.831630000000     0.474270000000     0.0358069  
H459     H      0.337470000000     0.833320000000     0.537750000000     0.0352134  
H460     H      0.308850000000     0.816620000000     0.494660000000     0.0566504  
H461     H      0.286480000000     0.780450000000     0.460900000000     0.0563894  
H462     H      0.258370000000     0.768970000000     0.416800000000     0.0357514  
H463     H      0.309440000000     0.818060000000     0.352200000000     0.035142   
H464     H      0.337860000000     0.829750000000     0.395480000000     0.056569   
H465     H      0.168660000000     0.813600000000     0.404960000000     0.0559919  
H466     H      0.192320000000     0.798340000000     0.387320000000     0.03544    
H467     H      0.190020000000     0.817770000000     0.287670000000     0.0361594  
H468     H      0.165610000000     0.832470000000     0.304160000000     0.056043   
H469     H      0.164680000000     0.862130000000     0.333370000000     0.0560345  
H470     H      0.139660000000     0.875980000000     0.350180000000     0.0354957  
H471     H      0.106620000000     0.821410000000     0.419560000000     0.0364575  
H472     H      0.130780000000     0.806550000000     0.402530000000     0.0561931  
H473     H      0.670790000000     0.531100000000     0.378480000000     0.0563294  
H474     H      0.701110000000     0.545330000000     0.337400000000     0.0357748  
H475     H      0.701750000000     0.482910000000     0.342250000000     0.0352491  
H476     H      0.671520000000     0.468180000000     0.383000000000     0.0566451  
H477     H      0.630080000000     0.501000000000     0.375660000000     0.0567089  
H478     H      0.594110000000     0.479510000000     0.404540000000     0.0355294  
H479     H      0.622990000000     0.450320000000     0.467640000000     0.0362013  
H480     H      0.659470000000     0.471790000000     0.439250000000     0.0563569  
H481     H      0.834090000000     0.524460000000     0.334030000000     0.0567345  
H482     H      0.813830000000     0.540680000000     0.307040000000     0.0355876  
H483     H      0.773610000000     0.478880000000     0.253050000000     0.0360297  
H484     H      0.793810000000     0.462130000000     0.279420000000     0.0560889  
H485     H      0.792390000000     0.449280000000     0.336300000000     0.0566386  
H486     H      0.806230000000     0.433320000000     0.377160000000     0.0354678  
H487     H      0.872950000000     0.492450000000     0.371790000000     0.0357924  
H488     H      0.859670000000     0.508940000000     0.330340000000     0.0559309  
H489     H      0.979390000000     0.848970000000     0.997270000000     0.0562485  
H490     H      0.948810000000     0.834200000000     0.037470000000     0.0353244  
H491     H      0.948510000000     0.771280000000     0.041500000000     0.0359291  
H492     H      0.979260000000     0.785590000000     0.001060000000     0.055651   
H493     H      0.020300000000     0.815850000000     0.005180000000     0.0573827  
H494     H      0.056580000000     0.837530000000     0.977020000000     0.0355288  
H495     H      0.028160000000     0.866710000000     0.913030000000     0.0366587  
H496     H      0.991440000000     0.845130000000     0.940730000000     0.0549743  
H497     H      0.850410000000     0.846360000000     0.077080000000     0.0560793  
H498     H      0.873540000000     0.834640000000     0.107090000000     0.0363267  
H499     H      0.831560000000     0.766300000000     0.072580000000     0.0350875  
H500     H      0.807280000000     0.777060000000     0.043650000000     0.0554817  
H501     H      0.808940000000     0.796600000000     0.995750000000     0.0558474  
H502     H      0.792660000000     0.811880000000     0.957920000000     0.0350479  
H503     H      0.800930000000     0.861830000000     0.029190000000     0.0350543  
H504     H      0.816320000000     0.846280000000     0.068550000000     0.0557316  
H505     H      0.994170000000     0.808100000000     0.237920000000     0.056667   
H506     H      0.966650000000     0.792860000000     0.193520000000     0.0354582  
H507     H      0.940310000000     0.835740000000     0.221470000000     0.0355937  
H508     H      0.967960000000     0.851520000000     0.266540000000     0.0566349  
H509     H      0.011630000000     0.875110000000     0.276250000000     0.056351   
H510     H      0.039230000000     0.888060000000     0.321400000000     0.0365316  
H511     H      0.018900000000     0.818980000000     0.344190000000     0.0364488  
H512     H      0.991450000000     0.805610000000     0.299600000000     0.0544366  
H513     H      0.851110000000     0.661810000000     0.147310000000     0.0559373  
H514     H      0.874360000000     0.700400000000     0.127100000000     0.0362569  
H515     H      0.844560000000     0.724070000000     0.198190000000     0.0354073  
H516     H      0.820260000000     0.685570000000     0.218060000000     0.0560156  
H517     H      0.819530000000     0.655720000000     0.248050000000     0.0559415  
H518     H      0.794670000000     0.617010000000     0.266930000000     0.0361565  
H519     H      0.789880000000     0.592110000000     0.168590000000     0.0352351  
H520     H      0.813770000000     0.630590000000     0.148510000000     0.055858   
H521     H      0.654670000000     0.471500000000     0.784680000000     0.0563868  
H522     H      0.690880000000     0.484540000000     0.756500000000     0.0361809  
H523     H      0.723730000000     0.541400000000     0.822240000000     0.0355878  
H524     H      0.688060000000     0.528840000000     0.850960000000     0.0566345  
H525     H      0.640800000000     0.454950000000     0.839930000000     0.0566138  
H526     H      0.609940000000     0.440650000000     0.879630000000     0.035196   
H527     H      0.617730000000     0.506840000000     0.888080000000     0.0357111  
H528     H      0.648720000000     0.521770000000     0.848040000000     0.0561645  
H529     H      0.516220000000     0.329460000000     0.939830000000     0.0561901  
H530     H      0.536980000000     0.366300000000     0.967110000000     0.0361316  
H531     H      0.498760000000     0.389650000000     0.912830000000     0.0355338  
H532     H      0.477870000000     0.353220000000     0.885040000000     0.0567699  
H533     H      0.451190000000     0.311540000000     0.888940000000     0.056202   
H534     H      0.437160000000     0.281290000000     0.847850000000     0.0359381  
H535     H      0.503450000000     0.288700000000     0.841260000000     0.035288   
H536     H      0.517970000000     0.318870000000     0.881920000000     0.0567799  
H537     H      0.656780000000     0.516140000000     0.082760000000     0.0567285  
H538     H      0.628990000000     0.503910000000     0.038640000000     0.0355871  
H539     H      0.604830000000     0.434100000000     0.062360000000     0.0359788  
H540     H      0.632730000000     0.445890000000     0.106920000000     0.0565894  
H541     H      0.654950000000     0.514190000000     0.144760000000     0.0567163  
H542     H      0.683180000000     0.528100000000     0.188380000000     0.0355708  
H543     H      0.704820000000     0.481610000000     0.159040000000     0.0358841  
H544     H      0.676450000000     0.467160000000     0.114920000000     0.056657   
H545     H      0.334730000000     0.537650000000     0.205750000000     0.0565882  
H546     H      0.363780000000     0.552470000000     0.163400000000     0.035655   
H547     H      0.375450000000     0.496980000000     0.178030000000     0.0358389  
H548     H      0.346570000000     0.481770000000     0.221240000000     0.0559725  
H549     H      0.305260000000     0.463320000000     0.221220000000     0.0566517  
H550     H      0.269520000000     0.446940000000     0.251020000000     0.0358339  
H551     H      0.288780000000     0.511990000000     0.292600000000     0.0353159  
H552     H      0.325090000000     0.528970000000     0.263540000000     0.0559657  
H553     H      0.468990000000     0.663550000000     0.133370000000     0.0560228  
H554     H      0.444680000000     0.628990000000     0.102650000000     0.0361461  
H555     H      0.487990000000     0.602680000000     0.128120000000     0.0350553  
H556     H      0.513370000000     0.637410000000     0.157520000000     0.0556941  
H557     H      0.512400000000     0.653050000000     0.208090000000     0.0560672  
H558     H      0.529790000000     0.683310000000     0.248170000000     0.0354459  
H559     H      0.520140000000     0.727640000000     0.184160000000     0.0348009  
H560     H      0.503460000000     0.697930000000     0.142480000000     0.0556284  
H561     H      0.302990000000     0.524940000000     0.932820000000     0.0569033  
H562     H      0.275100000000     0.508730000000     0.888060000000     0.0358378  
H563     H      0.299330000000     0.463500000000     0.863630000000     0.0356393  
H564     H      0.326970000000     0.479070000000     0.907910000000     0.0568877  
H565     H      0.323140000000     0.478040000000     0.970520000000     0.056962   
H566     H      0.350750000000     0.491430000000     0.014890000000     0.0357309  
H567     H      0.375640000000     0.560550000000     0.986080000000     0.0357458  
H568     H      0.347770000000     0.547530000000     0.941170000000     0.0568998  
H569     H      0.495800000000     0.529880000000     0.995320000000     0.0559364  
H570     H      0.471830000000     0.544740000000     0.012930000000     0.0355369  
H571     H      0.438710000000     0.490800000000     0.083230000000     0.0362902  
H572     H      0.461630000000     0.474790000000     0.065240000000     0.0559587  
H573     H      0.498640000000     0.480390000000     0.066920000000     0.0559269  
H574     H      0.522410000000     0.465300000000     0.049310000000     0.03525    
H575     H      0.521360000000     0.486100000000     0.950060000000     0.0361311  
H576     H      0.496670000000     0.500460000000     0.966420000000     0.0559261  
N1       N      0.724220000000     0.868540000000     0.384880000000    -0.178196   
N2       N      0.609970000000     0.798780000000     0.329130000000    -0.178983   
N3       N      0.821070000000     0.957080000000     0.342760000000    -0.178563   
N4       N      0.859320000000     0.037890000000     0.213020000000    -0.178502   
N5       N      0.805860000000     0.195860000000     0.214010000000    -0.178587   
N6       N      0.851510000000     0.127080000000     0.163150000000    -0.17823    
N7       N      0.467460000000     0.625300000000     0.508750000000    -0.178404   
N8       N      0.511740000000     0.707700000000     0.380860000000    -0.178083   
N9       N      0.514400000000     0.459680000000     0.502380000000    -0.178295   
N10      N      0.473570000000     0.532720000000     0.552390000000    -0.17848    
N11      N      0.178540000000     0.785960000000     0.828070000000    -0.178441   
N12      N      0.136520000000     0.857700000000     0.879890000000    -0.178433   
N13      N      0.477710000000     0.287360000000     0.681220000000    -0.178455   
N14      N      0.518770000000     0.368840000000     0.552080000000    -0.178436   
N15      N      0.130670000000     0.948540000000     0.830170000000    -0.178584   
N16      N      0.169780000000     0.031820000000     0.703710000000    -0.178321   
N17      N      0.267450000000     0.125750000000     0.665370000000    -0.17849    
N18      N      0.380640000000     0.195570000000     0.724890000000    -0.178414   
N19      N      0.827790000000     0.367490000000     0.049780000000    -0.178223   
N20      N      0.783070000000     0.281370000000     0.171860000000    -0.178229   
N21      N      0.145350000000     0.616550000000     0.005500000000    -0.178472   
N22      N      0.185380000000     0.695850000000     0.873610000000    -0.178197   
N23      N      0.049020000000     0.526770000000     0.053700000000    -0.178129   
N24      N      0.934360000000     0.453440000000     0.001970000000    -0.178269   
N25      N      0.512490000000     0.714840000000     0.767940000000    -0.178374   
N26      N      0.469280000000     0.617520000000     0.667000000000    -0.178567   
N27      N      0.809780000000     0.942730000000     0.948310000000    -0.179017   
N28      N      0.855210000000     0.038770000000     0.052470000000    -0.178628   
N29      N      0.715230000000     0.847520000000     0.886130000000    -0.178273   
N30      N      0.600480000000     0.806100000000     0.835830000000    -0.178338   
N31      N      0.511860000000     0.137320000000     0.891400000000    -0.178637   
N32      N      0.467700000000     0.191690000000     0.793940000000    -0.178312   
N33      N      0.513410000000     0.794530000000     0.272730000000    -0.178304   
N34      N      0.465910000000     0.843860000000     0.171280000000    -0.17856    
N35      N      0.503560000000     0.800450000000     0.882070000000    -0.178428   
N36      N      0.462800000000     0.840600000000     0.011500000000    -0.178366   
N37      N      0.467500000000     0.935790000000     0.060820000000    -0.178291   
N38      N      0.508970000000     0.049490000000     0.006990000000    -0.178515   
N39      N      0.134600000000     0.522300000000     0.122830000000    -0.178434   
N40      N      0.172450000000     0.464730000000     0.226610000000    -0.179482   
N41      N      0.178200000000     0.129960000000     0.601980000000    -0.178315   
N42      N      0.132730000000     0.180150000000     0.499290000000    -0.178514   
N43      N      0.137730000000     0.267950000000     0.380530000000    -0.178136   
N44      N      0.180920000000     0.382770000000     0.330580000000    -0.178492   
N45      N      0.136350000000     0.604090000000     0.609210000000    -0.178242   
N46      N      0.182720000000     0.699690000000     0.714200000000    -0.17867    
N47      N      0.143610000000     0.522290000000     0.500180000000    -0.177966   
N48      N      0.194770000000     0.483960000000     0.384300000000    -0.178252   
N49      N      0.841270000000     0.372710000000     0.430190000000    -0.178486   
N50      N      0.805690000000     0.277380000000     0.326230000000    -0.178767   
N51      N      0.927250000000     0.466550000000     0.496990000000    -0.178389   
N52      N      0.041890000000     0.510750000000     0.549860000000    -0.178308   
N53      N      0.517030000000     0.370660000000     0.391010000000    -0.178597   
N54      N      0.473340000000     0.276460000000     0.283440000000    -0.179163   
N55      N      0.486960000000     0.199800000000     0.174230000000    -0.178202   
N56      N      0.522540000000     0.152870000000     0.048000000000    -0.17828    
N57      N      0.178020000000     0.042960000000     0.094430000000    -0.178456   
N58      N      0.135050000000     0.946650000000     0.991550000000    -0.178815   
N59      N      0.129000000000     0.170110000000     0.336560000000    -0.178513   
N60      N      0.169150000000     0.129010000000     0.207770000000    -0.178366   
N61      N      0.379730000000     0.177240000000     0.217480000000    -0.178729   
N62      N      0.265680000000     0.133990000000     0.162810000000    -0.178221   
N63      N      0.797510000000     0.506980000000     0.832590000000    -0.178782   
N64      N      0.841420000000     0.456430000000     0.938350000000    -0.179229   
N65      N      0.792590000000     0.501020000000     0.671400000000    -0.17848    
N66      N      0.829920000000     0.458630000000     0.540730000000    -0.178671   
N67      N      0.807580000000     0.858220000000     0.453280000000    -0.178504   
N68      N      0.840550000000     0.797320000000     0.558280000000    -0.179387   
N69      N      0.856630000000     0.813920000000     0.717240000000    -0.178018   
N70      N      0.818790000000     0.864500000000     0.834810000000    -0.178237   
N71      N      0.802560000000     0.598660000000     0.719500000000    -0.178286   
N72      N      0.846600000000     0.713130000000     0.667440000000    -0.179021   
N73      N      0.944240000000     0.132840000000     0.098730000000    -0.17836    
N74      N      0.042590000000     0.186230000000     0.999720000000    -0.178866   
N75      N      0.177480000000     0.132870000000     0.046870000000    -0.178682   
N76      N      0.129530000000     0.180160000000     0.943040000000    -0.178594   
N77      N      0.378020000000     0.527230000000     0.610480000000    -0.178532   
N78      N      0.280050000000     0.475060000000     0.710210000000    -0.178621   
N79      N      0.186970000000     0.470250000000     0.761580000000    -0.178543   
N80      N      0.126100000000     0.504270000000     0.658230000000    -0.179713   
N81      N      0.195850000000     0.386380000000     0.827650000000    -0.178244   
N82      N      0.126060000000     0.272130000000     0.882160000000    -0.178622   
N83      N      0.699980000000     0.182150000000     0.836280000000    -0.178652   
N84      N      0.604120000000     0.137980000000     0.940510000000    -0.178559   
N85      N      0.793740000000     0.270250000000     0.789340000000    -0.178321   
N86      N      0.853310000000     0.365460000000     0.894170000000    -0.179321   
N87      N      0.950370000000     0.148630000000     0.555230000000    -0.1797     
N88      N      0.044820000000     0.183580000000     0.449130000000    -0.178299   
N89      N      0.861820000000     0.047220000000     0.607600000000    -0.178363   
N90      N      0.813480000000     0.950680000000     0.505020000000    -0.178555   
N91      N      0.032400000000     0.171290000000     0.842370000000    -0.178508   
N92      N      0.948670000000     0.132260000000     0.716160000000    -0.178166   
N93      N      0.857850000000     0.139140000000     0.663340000000    -0.17896    
N94      N      0.784970000000     0.179380000000     0.717280000000    -0.178291   
N95      N      0.371570000000     0.849560000000     0.667900000000    -0.178593   
N96      N      0.272680000000     0.793910000000     0.765610000000    -0.178492   
N97      N      0.460950000000     0.847080000000     0.613650000000    -0.178793   
N98      N      0.510780000000     0.803230000000     0.720500000000    -0.178574   
N99      N      0.704970000000     0.188080000000     0.275710000000    -0.17925    
N100     N      0.609440000000     0.139600000000     0.380890000000    -0.178568   
N101     N      0.460270000000     0.175240000000     0.330070000000    -0.178747   
N102     N      0.518420000000     0.137830000000     0.433100000000    -0.178649   
N103     N      0.695830000000     0.187510000000     0.674110000000    -0.178519   
N104     N      0.615380000000     0.148560000000     0.543610000000    -0.178715   
N105     N      0.453620000000     0.937210000000     0.551820000000    -0.178463   
N106     N      0.524480000000     0.051560000000     0.498310000000    -0.178186   
N107     N      0.939750000000     0.809000000000     0.607270000000    -0.178175   
N108     N      0.033360000000     0.853730000000     0.498050000000    -0.178443   
N109     N      0.126110000000     0.942230000000     0.448150000000    -0.178544   
N110     N      0.180250000000     0.040830000000     0.545970000000    -0.178814   
N111     N      0.276830000000     0.803800000000     0.223430000000    -0.178584   
N112     N      0.376730000000     0.848200000000     0.127420000000    -0.178414   
N113     N      0.137670000000     0.614320000000     0.169160000000    -0.178588   
N114     N      0.186710000000     0.709540000000     0.274600000000    -0.178701   
N115     N      0.364330000000     0.833910000000     0.508990000000    -0.178394   
N116     N      0.281810000000     0.792850000000     0.381490000000    -0.178453   
N117     N      0.192820000000     0.806880000000     0.336240000000    -0.178483   
N118     N      0.121360000000     0.849720000000     0.386090000000    -0.178206   
N119     N      0.703190000000     0.514950000000     0.336310000000    -0.178826   
N120     N      0.605810000000     0.462940000000     0.437590000000    -0.178408   
N121     N      0.791800000000     0.510700000000     0.278900000000    -0.178455   
N122     N      0.840410000000     0.462000000000     0.378040000000    -0.17858    
N123     N      0.946860000000     0.801900000000     0.042950000000    -0.178584   
N124     N      0.045120000000     0.854110000000     0.943590000000    -0.178299   
N125     N      0.854590000000     0.799800000000     0.091250000000    -0.178347   
N126     N      0.796200000000     0.838320000000     0.990500000000    -0.179231   
N127     N      0.951350000000     0.813050000000     0.204450000000    -0.178758   
N128     N      0.031160000000     0.854490000000     0.335890000000    -0.177786   
N129     N      0.861150000000     0.715000000000     0.161180000000    -0.178397   
N130     N      0.790490000000     0.601790000000     0.219160000000    -0.178587   
N131     N      0.709980000000     0.513580000000     0.787810000000    -0.178407   
N132     N      0.611990000000     0.472840000000     0.887280000000    -0.178926   
N133     N      0.519840000000     0.380810000000     0.941180000000    -0.178358   
N134     N      0.469400000000     0.283190000000     0.841110000000    -0.17874    
N135     N      0.614820000000     0.468130000000     0.047420000000    -0.178418   
N136     N      0.696170000000     0.505990000000     0.176690000000    -0.178447   
N137     N      0.371320000000     0.525510000000     0.167150000000    -0.17859    
N138     N      0.276300000000     0.478430000000     0.273100000000    -0.179001   
N139     N      0.464180000000     0.613090000000     0.114130000000    -0.17862    
N140     N      0.525700000000     0.707450000000     0.219390000000    -0.179614   
N141     N      0.285090000000     0.484860000000     0.872810000000    -0.178657   
N142     N      0.365320000000     0.526960000000     0.003530000000    -0.178701   
N143     N      0.453630000000     0.518920000000     0.049430000000    -0.17809    
N144     N      0.523650000000     0.474660000000     0.998460000000    -0.178652   
O1       O      0.396110000000     0.554820000000     0.032930000000    -0.245101   
O2       O      0.396010000000     0.522520000000     0.130950000000    -0.243117   
O3       O      0.430610000000     0.588910000000     0.086600000000    -0.24332    
O4       O      0.441650000000     0.545060000000     0.045860000000    -0.249591   
O5       O      0.426890000000     0.519530000000     0.083990000000    -0.241532   
O6       O      0.450400000000     0.574890000000     0.105780000000    -0.251578   
O7       O      0.381710000000     0.520000000000     0.048240000000    -0.254359   
O8       O      0.389020000000     0.549600000000     0.123320000000    -0.252555   
O9       O      0.584450000000     0.440850000000     0.016880000000    -0.242915   
O10      O      0.545130000000     0.468810000000     0.959770000000    -0.244241   
O11      O      0.550420000000     0.407360000000     0.972010000000    -0.2423     
O12      O      0.588190000000     0.445180000000     0.924040000000    -0.253594   
O13      O      0.590330000000     0.477680000000     0.926940000000    -0.24468    
O14      O      0.532170000000     0.419130000000     0.942390000000    -0.250842   
O15      O      0.598260000000     0.476040000000     0.003800000000    -0.251478   
O16      O      0.543330000000     0.455950000000     0.008860000000    -0.251902   
O17      O      0.886770000000     0.807960000000     0.121360000000    -0.242752   
O18      O      0.887660000000     0.741390000000     0.125080000000    -0.242749   
O19      O      0.920470000000     0.809100000000     0.174570000000    -0.244906   
O20      O      0.925920000000     0.808190000000     0.081740000000    -0.252447   
O21      O      0.923470000000     0.775480000000     0.081800000000    -0.242879   
O22      O      0.935160000000     0.788920000000     0.160260000000    -0.254453   
O23      O      0.867600000000     0.774810000000     0.098950000000    -0.251301   
O24      O      0.874670000000     0.753620000000     0.163530000000    -0.250707   
O25      O      0.761230000000     0.507250000000     0.249030000000    -0.242795   
O26      O      0.725840000000     0.541060000000     0.296610000000    -0.244285   
O27      O      0.726690000000     0.507920000000     0.204980000000    -0.243046   
O28      O      0.769560000000     0.562950000000     0.210940000000    -0.252018   
O29      O      0.769620000000     0.575540000000     0.259700000000    -0.243782   
O30      O      0.714310000000     0.529920000000     0.220540000000    -0.252094   
O31      O      0.780720000000     0.537510000000     0.278200000000    -0.251338   
O32      O      0.724280000000     0.508770000000     0.297620000000    -0.253256   
O33      O      0.217560000000     0.735900000000     0.305210000000    -0.24603    
O34      O      0.256170000000     0.807610000000     0.265750000000    -0.242354   
O35      O      0.270530000000     0.798190000000     0.330350000000    -0.251642   
O36      O      0.211920000000     0.787580000000     0.346500000000    -0.250928   
O37      O      0.212450000000     0.798980000000     0.296900000000    -0.244905   
O38      O      0.245150000000     0.771450000000     0.360680000000    -0.243208   
O39      O      0.197590000000     0.747400000000     0.279530000000    -0.251917   
O40      O      0.252220000000     0.774580000000     0.257620000000    -0.250745   
O41      O      0.097120000000     0.917360000000     0.413420000000    -0.242837   
O42      O      0.092970000000     0.848710000000     0.418740000000    -0.242646   
O43      O      0.060240000000     0.882560000000     0.367410000000    -0.243526   
O44      O      0.051240000000     0.876820000000     0.453320000000    -0.253034   
O45      O      0.059750000000     0.851220000000     0.464900000000    -0.242964   
O46      O      0.048380000000     0.847610000000     0.379680000000    -0.253235   
O47      O      0.110750000000     0.903360000000     0.448060000000    -0.25236    
O48      O      0.108390000000     0.875040000000     0.381900000000    -0.251418   
O49      O      0.584540000000     0.145350000000     0.514500000000    -0.245072   
O50      O      0.584820000000     0.112290000000     0.417890000000    -0.242793   
O51      O      0.551480000000     0.145940000000     0.460660000000    -0.243208   
O52      O      0.538450000000     0.090210000000     0.502430000000    -0.249737   
O53      O      0.551220000000     0.078480000000     0.462980000000    -0.242142   
O54      O      0.530380000000     0.112080000000     0.441440000000    -0.251623   
O55      O      0.598620000000     0.124830000000     0.499150000000    -0.254517   
O56      O      0.591070000000     0.146360000000     0.423210000000    -0.252544   
O57      O      0.400840000000     0.848320000000     0.529750000000    -0.243141   
O58      O      0.435040000000     0.909890000000     0.592080000000    -0.244367   
O59      O      0.429510000000     0.841690000000     0.584120000000    -0.245694   
O60      O      0.394500000000     0.844480000000     0.631250000000    -0.251382   
O61      O      0.392300000000     0.874750000000     0.626100000000    -0.242666   
O62      O      0.449990000000     0.873850000000     0.608470000000    -0.251922   
O63      O      0.376400000000     0.851500000000     0.559510000000    -0.251774   
O64      O      0.433930000000     0.898490000000     0.542280000000    -0.251119   
O65      O      0.893600000000     0.076340000000     0.633360000000    -0.243611   
O66      O      0.937910000000     0.147950000000     0.608340000000    -0.252203   
O67      O      0.926870000000     0.108470000000     0.673580000000    -0.242899   
O68      O      0.877000000000     0.119780000000     0.672360000000    -0.249239   
O69      O      0.882290000000     0.136940000000     0.625800000000    -0.248214   
O70      O      0.925650000000     0.139010000000     0.682100000000    -0.246529   
O71      O      0.868830000000     0.083840000000     0.613350000000    -0.249537   
O72      O      0.915910000000     0.120550000000     0.576240000000    -0.252046   
O73      O      0.761800000000     0.247300000000     0.757750000000    -0.242427   
O74      O      0.757210000000     0.177990000000     0.751750000000    -0.242361   
O75      O      0.726200000000     0.214620000000     0.705050000000    -0.244522   
O76      O      0.719940000000     0.208030000000     0.795240000000    -0.253038   
O77      O      0.723780000000     0.178680000000     0.798870000000    -0.243096   
O78      O      0.712350000000     0.179350000000     0.717400000000    -0.25439    
O79      O      0.779020000000     0.231840000000     0.781320000000    -0.251364   
O80      O      0.772920000000     0.205510000000     0.716660000000    -0.250624   
O81      O      0.220220000000     0.479540000000     0.789590000000    -0.242839   
O82      O      0.222210000000     0.413450000000     0.792120000000    -0.242173   
O83      O      0.254500000000     0.481160000000     0.842460000000    -0.245027   
O84      O      0.260210000000     0.481070000000     0.751150000000    -0.252445   
O85      O      0.256380000000     0.447830000000     0.748000000000    -0.243146   
O86      O      0.268570000000     0.460250000000     0.829170000000    -0.25434    
O87      O      0.200400000000     0.445670000000     0.769760000000    -0.251635   
O88      O      0.209080000000     0.424890000000     0.831460000000    -0.250152   
O89      O      0.098470000000     0.176110000000     0.913840000000    -0.244506   
O90      O      0.063660000000     0.211090000000     0.957840000000    -0.242465   
O91      O      0.067970000000     0.181070000000     0.863190000000    -0.242854   
O92      O      0.105550000000     0.233360000000     0.872990000000    -0.251913   
O93      O      0.106740000000     0.245190000000     0.922550000000    -0.244774   
O94      O      0.047660000000     0.191640000000     0.890180000000    -0.252183   
O95      O      0.119550000000     0.207720000000     0.939290000000    -0.251672   
O96      O      0.064650000000     0.180160000000     0.962660000000    -0.251677   
O97      O      0.903460000000     0.779170000000     0.617530000000    -0.249302   
O98      O      0.868360000000     0.791130000000     0.579900000000    -0.25168    
O99      O      0.882040000000     0.812460000000     0.680580000000    -0.243005   
O100     O      0.866940000000     0.751890000000     0.676620000000    -0.250719   
O101     O      0.850020000000     0.740150000000     0.629810000000    -0.248726   
O102     O      0.847370000000     0.784550000000     0.680910000000    -0.246804   
O103     O      0.911450000000     0.812590000000     0.633290000000    -0.243149   
O104     O      0.840300000000     0.784730000000     0.611110000000    -0.249703   
O105     O      0.765750000000     0.502790000000     0.704560000000    -0.24378    
O106     O      0.800690000000     0.535730000000     0.798630000000    -0.243264   
O107     O      0.732900000000     0.508330000000     0.750890000000    -0.242731   
O108     O      0.775380000000     0.560410000000     0.718070000000    -0.251346   
O109     O      0.803600000000     0.571210000000     0.751650000000    -0.242568   
O110     O      0.749180000000     0.535630000000     0.786190000000    -0.252177   
O111     O      0.801220000000     0.526800000000     0.713490000000    -0.253723   
O112     O      0.773050000000     0.501670000000     0.789800000000    -0.253529   
O113     O      0.173050000000     0.067020000000     0.129260000000    -0.242964   
O114     O      0.239150000000     0.135170000000     0.128570000000    -0.242812   
O115     O      0.170790000000     0.101160000000     0.177050000000    -0.24396    
O116     O      0.170590000000     0.107420000000     0.088830000000    -0.25323    
O117     O      0.204950000000     0.135310000000     0.083040000000    -0.242776   
O118     O      0.194300000000     0.136210000000     0.165150000000    -0.25377    
O119     O      0.202670000000     0.081670000000     0.097770000000    -0.252123   
O120     O      0.226830000000     0.108850000000     0.165540000000    -0.251219   
O121     O      0.463520000000     0.212840000000     0.193100000000    -0.242919   
O122     O      0.406840000000     0.185530000000     0.257860000000    -0.248626   
O123     O      0.478120000000     0.249510000000     0.255780000000    -0.250798   
O124     O      0.458280000000     0.205340000000     0.307880000000    -0.249671   
O125     O      0.447020000000     0.175520000000     0.277750000000    -0.244613   
O126     O      0.444650000000     0.239520000000     0.273940000000    -0.251166   
O127     O      0.476560000000     0.198870000000     0.228580000000    -0.247215   
O128     O      0.418600000000     0.197800000000     0.208830000000    -0.247873   
O129     O      0.832700000000     0.397330000000     0.457330000000    -0.243013   
O130     O      0.900210000000     0.466480000000     0.462450000000    -0.242393   
O131     O      0.833850000000     0.431040000000     0.512950000000    -0.245458   
O132     O      0.833040000000     0.436250000000     0.419730000000    -0.251943   
O133     O      0.867200000000     0.464790000000     0.415830000000    -0.24252    
O134     O      0.852830000000     0.465490000000     0.495350000000    -0.254772   
O135     O      0.867020000000     0.410650000000     0.439560000000    -0.251173   
O136     O      0.888720000000     0.440150000000     0.499360000000    -0.249611   
O137     O      0.143170000000     0.546210000000     0.540460000000    -0.242615   
O138     O      0.068970000000     0.514510000000     0.587770000000    -0.248046   
O139     O      0.140210000000     0.576590000000     0.581380000000    -0.243013   
O140     O      0.120600000000     0.532560000000     0.637130000000    -0.252105   
O141     O      0.113110000000     0.504340000000     0.605750000000    -0.251504   
O142     O      0.107430000000     0.566950000000     0.602300000000    -0.249193   
O143     O      0.112690000000     0.513730000000     0.533140000000    -0.246545   
O144     O      0.080740000000     0.531040000000     0.540720000000    -0.249535   
O145     O      0.101690000000     0.173950000000     0.365500000000    -0.245103   
O146     O      0.136300000000     0.207300000000     0.461680000000    -0.242809   
O147     O      0.068420000000     0.174710000000     0.419570000000    -0.242473   
O148     O      0.110960000000     0.229570000000     0.378980000000    -0.24963    
O149     O      0.138490000000     0.240900000000     0.413980000000    -0.242369   
O150     O      0.083140000000     0.208330000000     0.440460000000    -0.251123   
O151     O      0.136680000000     0.194050000000     0.380820000000    -0.254489   
O152     O      0.107310000000     0.173490000000     0.457290000000    -0.252341   
O153     O      0.211230000000     0.485560000000     0.333670000000    -0.245038   
O154     O      0.184210000000     0.410400000000     0.294160000000    -0.24764    
O155     O      0.248560000000     0.481700000000     0.301400000000    -0.248109   
O156     O      0.174810000000     0.453570000000     0.279470000000    -0.252149   
O157     O      0.201470000000     0.459490000000     0.245500000000    -0.251216   
O158     O      0.239070000000     0.449470000000     0.279240000000    -0.251042   
O159     O      0.194470000000     0.453480000000     0.359190000000    -0.245473   
O160     O      0.202650000000     0.421390000000     0.340010000000    -0.244193   
O161     O      0.400480000000     0.844720000000     0.089910000000    -0.242891   
O162     O      0.469470000000     0.908970000000     0.093330000000    -0.242887   
O163     O      0.434900000000     0.841260000000     0.043580000000    -0.243477   
O164     O      0.467990000000     0.872940000000     0.139160000000    -0.242922   
O165     O      0.441620000000     0.838610000000     0.128260000000    -0.253272   
O166     O      0.470040000000     0.865440000000     0.054500000000    -0.253451   
O167     O      0.415900000000     0.870730000000     0.127220000000    -0.252552   
O168     O      0.442120000000     0.897120000000     0.057990000000    -0.25176    
O169     O      0.546430000000     0.142010000000     0.023780000000    -0.242921   
O170     O      0.515080000000     0.076070000000     0.966870000000    -0.244691   
O171     O      0.579110000000     0.143280000000     0.972720000000    -0.243803   
O172     O      0.540380000000     0.142290000000     0.927100000000    -0.252169   
O173     O      0.507770000000     0.111570000000     0.931830000000    -0.242719   
O174     O      0.565560000000     0.112320000000     0.944570000000    -0.251461   
O175     O      0.513460000000     0.130140000000     0.001870000000    -0.251856   
O176     O      0.528920000000     0.088370000000     0.015190000000    -0.252096   
O177     O      0.818320000000     0.877000000000     0.887680000000    -0.245883   
O178     O      0.742690000000     0.850650000000     0.922930000000    -0.247605   
O179     O      0.781280000000     0.905450000000     0.941090000000    -0.251269   
O180     O      0.785050000000     0.841410000000     0.937910000000    -0.250748   
O181     O      0.791670000000     0.867910000000     0.972540000000    -0.250745   
O182     O      0.813770000000     0.915900000000     0.918790000000    -0.249255   
O183     O      0.788560000000     0.866150000000     0.857510000000    -0.244635   
O184     O      0.754020000000     0.869750000000     0.877700000000    -0.243787   
O185     O      0.507940000000     0.738740000000     0.803710000000    -0.242484   
O186     O      0.573470000000     0.808320000000     0.804070000000    -0.243373   
O187     O      0.506270000000     0.772810000000     0.852420000000    -0.244168   
O188     O      0.504510000000     0.778610000000     0.763410000000    -0.253075   
O189     O      0.538800000000     0.806370000000     0.756200000000    -0.24262    
O190     O      0.527740000000     0.807780000000     0.838090000000    -0.253756   
O191     O      0.536660000000     0.753670000000     0.770480000000    -0.251867   
O192     O      0.561890000000     0.779790000000     0.837050000000    -0.251331   
O193     O      0.143130000000     0.587160000000     0.037180000000    -0.244709   
O194     O      0.144270000000     0.595470000000     0.127410000000    -0.252707   
O195     O      0.142660000000     0.553910000000     0.091520000000    -0.242749   
O196     O      0.087590000000     0.539480000000     0.052150000000    -0.249946   
O197     O      0.076020000000     0.555810000000     0.086220000000    -0.242135   
O198     O      0.109650000000     0.535320000000     0.114700000000    -0.251228   
O199     O      0.121460000000     0.600470000000     0.050030000000    -0.254228   
O200     O      0.110100000000     0.589170000000     0.132860000000    -0.24295    
O201     O      0.869460000000     0.447370000000     0.945910000000    -0.25144    
O202     O      0.858850000000     0.399790000000     0.913230000000    -0.250533   
O203     O      0.830860000000     0.380200000000     0.996160000000    -0.246033   
O204     O      0.895580000000     0.436970000000     0.009900000000    -0.243892   
O205     O      0.906970000000     0.429980000000     0.964190000000    -0.247966   
O206     O      0.858980000000     0.399830000000     0.028980000000    -0.244104   
O207     O      0.836640000000     0.425100000000     0.967340000000    -0.25011    
O208     O      0.863750000000     0.378610000000     0.947460000000    -0.250227   
O209     O      0.173670000000     0.064020000000     0.678130000000    -0.242902   
O210     O      0.241430000000     0.105310000000     0.624330000000    -0.243721   
O211     O      0.173520000000     0.099160000000     0.632400000000    -0.243117   
O212     O      0.174370000000     0.061980000000     0.584830000000    -0.253005   
O213     O      0.206620000000     0.063250000000     0.585590000000    -0.243354   
O214     O      0.204440000000     0.118110000000     0.604240000000    -0.251562   
O215     O      0.193540000000     0.049880000000     0.659660000000    -0.252494   
O216     O      0.228380000000     0.105960000000     0.672480000000    -0.252266   
O217     O      0.475530000000     0.257460000000     0.711510000000    -0.243889   
O218     O      0.441800000000     0.258020000000     0.804950000000    -0.242796   
O219     O      0.472070000000     0.219980000000     0.757940000000    -0.24286    
O220     O      0.419330000000     0.208860000000     0.723110000000    -0.251771   
O221     O      0.407160000000     0.223090000000     0.759750000000    -0.243028   
O222     O      0.444180000000     0.206870000000     0.792580000000    -0.25198    
O223     O      0.452740000000     0.269490000000     0.724130000000    -0.253722   
O224     O      0.475830000000     0.263770000000     0.800010000000    -0.253126   
O225     O      0.213230000000     0.726360000000     0.843870000000    -0.242668   
O226     O      0.208070000000     0.719500000000     0.756010000000    -0.25344    
O227     O      0.247940000000     0.764170000000     0.799430000000    -0.24349    
O228     O      0.199280000000     0.768120000000     0.836590000000    -0.251763   
O229     O      0.183280000000     0.763880000000     0.789220000000    -0.242966   
O230     O      0.233660000000     0.777960000000     0.765640000000    -0.252804   
O231     O      0.178110000000     0.712900000000     0.830010000000    -0.252345   
O232     O      0.179430000000     0.724390000000     0.749840000000    -0.243531   
O233     O      0.069790000000     0.882580000000     0.908090000000    -0.242082   
O234     O      0.138950000000     0.922810000000     0.954880000000    -0.243464   
O235     O      0.103350000000     0.919860000000     0.863050000000    -0.244131   
O236     O      0.111120000000     0.870660000000     0.876470000000    -0.251308   
O237     O      0.138270000000     0.886520000000     0.912110000000    -0.243024   
O238     O      0.138570000000     0.930690000000     0.871920000000    -0.253747   
O239     O      0.084080000000     0.869250000000     0.942800000000    -0.251352   
O240     O      0.108890000000     0.925530000000     0.951320000000    -0.253198   
O241     O      0.546760000000     0.398570000000     0.521340000000    -0.243731   
O242     O      0.514100000000     0.396560000000     0.424590000000    -0.242955   
O243     O      0.581350000000     0.434610000000     0.473500000000    -0.242778   
O244     O      0.539490000000     0.446370000000     0.506290000000    -0.25144    
O245     O      0.512800000000     0.431030000000     0.469870000000    -0.242946   
O246     O      0.566920000000     0.448020000000     0.439210000000    -0.252295   
O247     O      0.511680000000     0.385720000000     0.508110000000    -0.253628   
O248     O      0.541060000000     0.389610000000     0.434440000000    -0.253288   
O249     O      0.404660000000     0.558280000000     0.580480000000    -0.243752   
O250     O      0.474010000000     0.595740000000     0.627520000000    -0.242898   
O251     O      0.440390000000     0.591040000000     0.532020000000    -0.243079   
O252     O      0.454650000000     0.552260000000     0.542430000000    -0.251875   
O253     O      0.467300000000     0.553620000000     0.591520000000    -0.244052   
O254     O      0.473140000000     0.609830000000     0.555700000000    -0.252568   
O255     O      0.416440000000     0.539630000000     0.609020000000    -0.252031   
O256     O      0.442220000000     0.595420000000     0.628270000000    -0.252209   
O257     O      0.886570000000     0.066900000000     0.180490000000    -0.24374    
O258     O      0.852270000000     0.064540000000     0.086280000000    -0.243115   
O259     O      0.920140000000     0.104850000000     0.135290000000    -0.242882   
O260     O      0.877510000000     0.114870000000     0.166980000000    -0.251494   
O261     O      0.850810000000     0.098840000000     0.130710000000    -0.242943   
O262     O      0.905130000000     0.116420000000     0.099020000000    -0.252344   
O263     O      0.851230000000     0.055250000000     0.170760000000    -0.253596   
O264     O      0.879990000000     0.058530000000     0.094840000000    -0.253275   
O265     O      0.772060000000     0.244640000000     0.188010000000    -0.242804   
O266     O      0.797490000000     0.215020000000     0.253510000000    -0.248761   
O267     O      0.732300000000     0.219460000000     0.247150000000    -0.251343   
O268     O      0.776020000000     0.244880000000     0.303130000000    -0.24912    
O269     O      0.806320000000     0.264270000000     0.273930000000    -0.244828   
O270     O      0.742490000000     0.197550000000     0.269850000000    -0.250859   
O271     O      0.781930000000     0.270110000000     0.225740000000    -0.247745   
O272     O      0.784490000000     0.212920000000     0.204570000000    -0.247155   
O273     O      0.817070000000     0.891300000000     0.424800000000    -0.243492   
O274     O      0.751250000000     0.895280000000     0.420110000000    -0.242076   
O275     O      0.817510000000     0.925780000000     0.370840000000    -0.244763   
O276     O      0.819820000000     0.933320000000     0.460920000000    -0.252507   
O277     O      0.785290000000     0.925140000000     0.469790000000    -0.243108   
O278     O      0.797980000000     0.940620000000     0.387910000000    -0.254339   
O279     O      0.783230000000     0.871950000000     0.445200000000    -0.251796   
O280     O      0.762490000000     0.879940000000     0.383770000000    -0.249761   
O281     O      0.510410000000     0.762620000000     0.297730000000    -0.243281   
O282     O      0.538210000000     0.719690000000     0.272360000000    -0.251297   
O283     O      0.510210000000     0.731130000000     0.340760000000    -0.242855   
O284     O      0.571120000000     0.779530000000     0.338020000000    -0.250132   
O285     O      0.583070000000     0.775120000000     0.290970000000    -0.248202   
O286     O      0.540870000000     0.729430000000     0.344660000000    -0.246877   
O287     O      0.543370000000     0.788220000000     0.279760000000    -0.249498   
O288     O      0.532010000000     0.741410000000     0.241370000000    -0.252126   


