data_structure

_audit_creation_method RASPA-1.0
_audit_creation_date 2023-5-23
_audit_author_name 'Poobodin Mano'

_cell_length_a    47.9565
_cell_length_b    47.9765
_cell_length_c    47.4622
_cell_angle_alpha 90.013
_cell_angle_beta  90.0823
_cell_angle_gamma 120.003
_cell_volume      94567.2

_symmetry_cell_setting          triclinic
_symmetry_space_group_name_Hall 'P 1'
_symmetry_space_group_name_H-M  'P 1'
_symmetry_Int_Tables_number     1

_symmetry_equiv_pos_as_xyz 'x,y,z'

loop_
_atom_site_label
_atom_site_type_symbol
_atom_site_fract_x
_atom_site_fract_y
_atom_site_fract_z
_atom_site_charge
C1       C      0.496980000000     0.426070000000     0.085330000000     0.345757   
C2       C      0.590230000000     0.429460000000     0.135060000000     0.34612    
C3       C      0.503020000000     0.432190000000     0.179570000000     0.345569   
C4       C      0.499620000000     0.338880000000     0.130010000000     0.345978   
C5       C      0.418970000000     0.504390000000     0.429510000000     0.345774   
C6       C      0.422610000000     0.597740000000     0.379520000000     0.345841   
C7       C      0.425110000000     0.510590000000     0.335210000000     0.345807   
C8       C      0.331900000000     0.507180000000     0.385240000000     0.346001   
C9       C      0.883000000000     0.426360000000     0.179780000000     0.345537   
C10      C      0.793130000000     0.429730000000     0.129840000000     0.34577    
C11      C      0.883110000000     0.432600000000     0.085520000000     0.345773   
C12      C      0.793290000000     0.339210000000     0.135080000000     0.346039   
C13      C      0.129330000000     0.597950000000     0.385440000000     0.345928   
C14      C      0.039310000000     0.504620000000     0.335790000000     0.345655   
C15      C      0.129200000000     0.507300000000     0.380330000000     0.345978   
C16      C      0.039490000000     0.510870000000     0.430050000000     0.345726   
C17      C      0.499910000000     0.136360000000     0.135220000000     0.345754   
C18      C      0.503590000000     0.046680000000     0.085210000000     0.345585   
C19      C      0.590620000000     0.136460000000     0.129700000000     0.346      
C20      C      0.497340000000     0.046640000000     0.179510000000     0.345755   
C21      C      0.332210000000     0.800500000000     0.379720000000     0.346025   
C22      C      0.425530000000     0.890390000000     0.429340000000     0.345609   
C23      C      0.422850000000     0.800530000000     0.384680000000     0.346021   
C24      C      0.419360000000     0.890350000000     0.335090000000     0.345691   
C25      C      0.424170000000     0.951100000000     0.285460000000    -0.0805245  
C26      C      0.450490000000     0.956330000000     0.268810000000     0.0364191  
C27      C      0.465460000000     0.938240000000     0.274530000000    -0.0809083  
C28      C      0.454590000000     0.916200000000     0.296660000000     0.0712909  
C29      C      0.413760000000     0.928630000000     0.307360000000     0.0707048  
C30      C      0.462620000000     0.980660000000     0.245790000000     0.036475   
C31      C      0.441410000000     0.985320000000     0.228720000000    -0.080574   
C32      C      0.453420000000     0.007800000000     0.206820000000     0.0707209  
C33      C      0.506850000000     0.021340000000     0.218370000000     0.0711306  
C34      C      0.495720000000     0.999300000000     0.240510000000    -0.080865   
C35      C      0.498410000000     0.985510000000     0.035840000000    -0.0805948  
C36      C      0.472470000000     0.980740000000     0.018780000000     0.0363621  
C37      C      0.457910000000     0.999280000000     0.024130000000    -0.0808632  
C38      C      0.468780000000     0.021310000000     0.046320000000     0.0711758  
C39      C      0.508830000000     0.007980000000     0.057790000000     0.0707265  
C40      C      0.460310000000     0.956410000000     0.495730000000     0.0364155  
C41      C      0.481450000000     0.951300000000     0.479030000000    -0.0805498  
C42      C      0.469410000000     0.928810000000     0.457080000000     0.0707136  
C43      C      0.416090000000     0.916140000000     0.467860000000     0.0711122  
C44      C      0.427240000000     0.938200000000     0.490030000000    -0.0808306  
C45      C      0.186810000000     0.678870000000     0.360500000000    -0.0809124  
C46      C      0.207660000000     0.691390000000     0.383650000000     0.0363416  
C47      C      0.199780000000     0.672910000000     0.408330000000    -0.0806672  
C48      C      0.172620000000     0.642190000000     0.408970000000     0.0707343  
C49      C      0.159910000000     0.647990000000     0.361840000000     0.0709     
C50      C      0.238660000000     0.722330000000     0.381510000000     0.036343   
C51      C      0.257110000000     0.730200000000     0.356830000000    -0.0807145  
C52      C      0.287880000000     0.757300000000     0.356190000000     0.070787   
C53      C      0.282180000000     0.769980000000     0.403330000000     0.0708686  
C54      C      0.251250000000     0.743140000000     0.404670000000    -0.0808491  
C55      C      0.723160000000     0.264180000000     0.158080000000    -0.0807337  
C56      C      0.715120000000     0.245670000000     0.133380000000     0.036374   
C57      C      0.735780000000     0.258200000000     0.110170000000    -0.0809447  
C58      C      0.762630000000     0.289110000000     0.111480000000     0.0709445  
C59      C      0.750270000000     0.294940000000     0.158680000000     0.0707878  
C60      C      0.684150000000     0.214700000000     0.131280000000     0.0362702  
C61      C      0.671800000000     0.193880000000     0.154420000000    -0.0808483  
C62      C      0.640880000000     0.167010000000     0.153140000000     0.0708571  
C63      C      0.634710000000     0.179680000000     0.106100000000     0.0706884  
C64      C      0.665460000000     0.206810000000     0.106680000000    -0.0806312  
C65      C      0.930450000000     0.472190000000     0.240790000000    -0.0808874  
C66      C      0.948930000000     0.457580000000     0.246290000000     0.0364563  
C67      C      0.944120000000     0.431580000000     0.229350000000    -0.0805791  
C68      C      0.921650000000     0.421130000000     0.207370000000     0.0707228  
C69      C      0.908420000000     0.461280000000     0.218580000000     0.0712161  
C70      C      0.973260000000     0.469770000000     0.269370000000     0.0363805  
C71      C      0.991530000000     0.502840000000     0.274980000000    -0.0808072  
C72      C      0.013590000000     0.514010000000     0.297170000000     0.0711568  
C73      C      0.000800000000     0.460710000000     0.308140000000     0.070617   
C74      C      0.978310000000     0.448650000000     0.286190000000    -0.0804616  
C75      C      0.930800000000     0.434400000000     0.024770000000    -0.0808313  
C76      C      0.949170000000     0.467480000000     0.019310000000     0.0363747  
C77      C      0.944200000000     0.488600000000     0.036190000000    -0.0805184  
C78      C      0.921700000000     0.476530000000     0.058070000000     0.0706902  
C79      C      0.908730000000     0.423210000000     0.046880000000     0.0711415  
C80      C      0.973520000000     0.479670000000     0.496320000000     0.0363787  
C81      C      0.991890000000     0.464960000000     0.490800000000    -0.0808184  
C82      C      0.013930000000     0.475860000000     0.468670000000     0.0711508  
C83      C      0.000950000000     0.516220000000     0.457590000000     0.0706221  
C84      C      0.978470000000     0.505770000000     0.479490000000    -0.0803815  
C85      C      0.427060000000     0.672550000000     0.356410000000    -0.0806257  
C86      C      0.438030000000     0.691290000000     0.380950000000     0.0363246  
C87      C      0.446630000000     0.678990000000     0.404070000000    -0.0808854  
C88      C      0.442540000000     0.648060000000     0.402830000000     0.0708913  
C89      C      0.423400000000     0.641790000000     0.355870000000     0.0707083  
C90      C      0.438090000000     0.722290000000     0.383010000000     0.0363295  
C91      C      0.446070000000     0.742860000000     0.359740000000    -0.080929   
C92      C      0.442050000000     0.769740000000     0.361040000000     0.0709485  
C93      C      0.424220000000     0.757570000000     0.408340000000     0.0707161  
C94      C      0.427820000000     0.730440000000     0.407750000000    -0.0806571  
C95      C      0.250630000000     0.483370000000     0.360740000000    -0.0807821  
C96      C      0.238370000000     0.491930000000     0.383890000000     0.0362527  
C97      C      0.257160000000     0.502810000000     0.408430000000    -0.0806255  
C98      C      0.287910000000     0.506420000000     0.408930000000     0.0707663  
C99      C      0.281550000000     0.487400000000     0.361940000000     0.070798   
C100     C      0.207390000000     0.491930000000     0.381860000000     0.0363744  
C101     C      0.199250000000     0.502300000000     0.357170000000    -0.0806967  
C102     C      0.172130000000     0.505950000000     0.356620000000     0.070718   
C103     C      0.159970000000     0.487960000000     0.403890000000     0.0708756  
C104     C      0.186830000000     0.483900000000     0.405140000000    -0.0809236  
C105     C      0.671210000000     0.452950000000     0.110220000000    -0.0808817  
C106     C      0.683790000000     0.444820000000     0.133440000000     0.0363519  
C107     C      0.665310000000     0.434320000000     0.158110000000    -0.0806805  
C108     C      0.634540000000     0.430670000000     0.158690000000     0.070764   
C109     C      0.640290000000     0.448880000000     0.111500000000     0.070924   
C110     C      0.714780000000     0.444850000000     0.131380000000     0.0362705  
C111     C      0.722690000000     0.434160000000     0.106760000000    -0.0806608  
C112     C      0.749850000000     0.430600000000     0.106200000000     0.070757   
C113     C      0.762530000000     0.449280000000     0.153290000000     0.0708345  
C114     C      0.735630000000     0.453280000000     0.154550000000    -0.0808036  
C115     C      0.494710000000     0.263840000000     0.106960000000    -0.0806803  
C116     C      0.484420000000     0.245420000000     0.131680000000     0.0363135  
C117     C      0.476400000000     0.258010000000     0.154940000000    -0.080829   
C118     C      0.480410000000     0.288900000000     0.153650000000     0.0708488  
C119     C      0.498310000000     0.294570000000     0.106370000000     0.0707923  
C120     C      0.484480000000     0.214490000000     0.133750000000     0.0363106  
C121     C      0.475930000000     0.193600000000     0.110630000000    -0.0808785  
C122     C      0.480030000000     0.166770000000     0.111870000000     0.070899   
C123     C      0.499070000000     0.179610000000     0.158860000000     0.0707015  
C124     C      0.495410000000     0.206700000000     0.158310000000    -0.0806179  
C125     C      0.464640000000     0.502620000000     0.490570000000    -0.0808997  
C126     C      0.450100000000     0.469530000000     0.495890000000     0.0364742  
C127     C      0.424190000000     0.448370000000     0.478810000000    -0.0805507  
C128     C      0.413770000000     0.460430000000     0.456870000000     0.0706479  
C129     C      0.453770000000     0.513800000000     0.468400000000     0.0712403  
C130     C      0.462260000000     0.457350000000     0.018940000000     0.0363645  
C131     C      0.495320000000     0.472210000000     0.024670000000    -0.0808606  
C132     C      0.506450000000     0.461290000000     0.046840000000     0.0711654  
C133     C      0.453120000000     0.420620000000     0.057550000000     0.0706485  
C134     C      0.441100000000     0.431080000000     0.035600000000    -0.0805024  
C135     C      0.426660000000     0.464920000000     0.274120000000    -0.0808517  
C136     C      0.459770000000     0.479300000000     0.268870000000     0.0364458  
C137     C      0.481000000000     0.505110000000     0.285990000000    -0.0805599  
C138     C      0.469010000000     0.515590000000     0.307910000000     0.0707414  
C139     C      0.415550000000     0.475850000000     0.296280000000     0.0711738  
C140     C      0.471870000000     0.467080000000     0.245840000000     0.0363906  
C141     C      0.456830000000     0.434030000000     0.240060000000    -0.0808487  
C142     C      0.467710000000     0.422840000000     0.217930000000     0.0711837  
C143     C      0.508660000000     0.476070000000     0.207330000000     0.0707396  
C144     C      0.498250000000     0.488150000000     0.229240000000    -0.0805058  
C145     C      0.496980000000     0.426070000000     0.585330000000     0.345758   
C146     C      0.590230000000     0.429460000000     0.635060000000     0.346118   
C147     C      0.503020000000     0.432190000000     0.679570000000     0.345694   
C148     C      0.499620000000     0.338880000000     0.630010000000     0.345977   
C149     C      0.418970000000     0.504390000000     0.929510000000     0.345778   
C150     C      0.422610000000     0.597740000000     0.879510000000     0.346011   
C151     C      0.425110000000     0.510590000000     0.835210000000     0.345902   
C152     C      0.331900000000     0.507180000000     0.885240000000     0.345995   
C153     C      0.883000000000     0.426360000000     0.679780000000     0.345536   
C154     C      0.793130000000     0.429730000000     0.629840000000     0.345945   
C155     C      0.883110000000     0.432600000000     0.585520000000     0.345657   
C156     C      0.793290000000     0.339210000000     0.635080000000     0.346039   
C157     C      0.129330000000     0.597950000000     0.885440000000     0.345932   
C158     C      0.039310000000     0.504620000000     0.835790000000     0.345656   
C159     C      0.129200000000     0.507300000000     0.880330000000     0.345977   
C160     C      0.039490000000     0.510870000000     0.930040000000     0.345859   
C161     C      0.499910000000     0.136360000000     0.635220000000     0.345753   
C162     C      0.503580000000     0.046680000000     0.585210000000     0.345719   
C163     C      0.590620000000     0.136460000000     0.629700000000     0.345999   
C164     C      0.497340000000     0.046640000000     0.679510000000     0.345754   
C165     C      0.332210000000     0.800500000000     0.879710000000     0.346023   
C166     C      0.425530000000     0.890390000000     0.929340000000     0.34552    
C167     C      0.422850000000     0.800530000000     0.884680000000     0.346029   
C168     C      0.419360000000     0.890350000000     0.835090000000     0.345692   
C169     C      0.424170000000     0.951100000000     0.785450000000    -0.0805362  
C170     C      0.450490000000     0.956330000000     0.768810000000     0.0364696  
C171     C      0.465460000000     0.938240000000     0.774530000000    -0.0809696  
C172     C      0.454590000000     0.916200000000     0.796660000000     0.0713146  
C173     C      0.413760000000     0.928630000000     0.807360000000     0.0706872  
C174     C      0.462620000000     0.980660000000     0.745790000000     0.0364405  
C175     C      0.441410000000     0.985320000000     0.728720000000    -0.0805552  
C176     C      0.453420000000     0.007800000000     0.706820000000     0.0707158  
C177     C      0.506850000000     0.021340000000     0.718370000000     0.0711419  
C178     C      0.495720000000     0.999300000000     0.740500000000    -0.0808297  
C179     C      0.498410000000     0.985510000000     0.535840000000    -0.0806228  
C180     C      0.472470000000     0.980740000000     0.518780000000     0.0364372  
C181     C      0.457910000000     0.999280000000     0.524140000000    -0.0808681  
C182     C      0.468780000000     0.021310000000     0.546320000000     0.0712092  
C183     C      0.508830000000     0.007980000000     0.557790000000     0.0707646  
C184     C      0.460310000000     0.956410000000     0.995720000000     0.036537   
C185     C      0.481450000000     0.951300000000     0.979030000000    -0.0806346  
C186     C      0.469410000000     0.928810000000     0.957090000000     0.0707628  
C187     C      0.416090000000     0.916140000000     0.967860000000     0.0711439  
C188     C      0.427240000000     0.938200000000     0.990030000000    -0.0808117  
C189     C      0.186810000000     0.678870000000     0.860500000000    -0.0809046  
C190     C      0.207660000000     0.691390000000     0.883650000000     0.0363436  
C191     C      0.199780000000     0.672910000000     0.908330000000    -0.0806717  
C192     C      0.172620000000     0.642190000000     0.908970000000     0.0707508  
C193     C      0.159910000000     0.647990000000     0.861840000000     0.0708892  
C194     C      0.238660000000     0.722330000000     0.881510000000     0.036345   
C195     C      0.257110000000     0.730200000000     0.856830000000    -0.0807089  
C196     C      0.287880000000     0.757300000000     0.856190000000     0.0707765  
C197     C      0.282180000000     0.769980000000     0.903330000000     0.0708836  
C198     C      0.251250000000     0.743140000000     0.904670000000    -0.080852   
C199     C      0.723160000000     0.264180000000     0.658080000000    -0.0807338  
C200     C      0.715120000000     0.245670000000     0.633380000000     0.0363772  
C201     C      0.735780000000     0.258200000000     0.610170000000    -0.0809443  
C202     C      0.762630000000     0.289110000000     0.611480000000     0.0709469  
C203     C      0.750270000000     0.294940000000     0.658680000000     0.0707897  
C204     C      0.684150000000     0.214700000000     0.631280000000     0.0362675  
C205     C      0.671800000000     0.193880000000     0.654420000000    -0.0808369  
C206     C      0.640880000000     0.167010000000     0.653140000000     0.0708415  
C207     C      0.634710000000     0.179680000000     0.606100000000     0.0706894  
C208     C      0.665460000000     0.206810000000     0.606680000000    -0.0806272  
C209     C      0.930450000000     0.472190000000     0.740790000000    -0.0808444  
C210     C      0.948940000000     0.457580000000     0.746290000000     0.0364072  
C211     C      0.944120000000     0.431580000000     0.729350000000    -0.0805561  
C212     C      0.921650000000     0.421130000000     0.707370000000     0.0707163  
C213     C      0.908420000000     0.461280000000     0.718580000000     0.0712019  
C214     C      0.973260000000     0.469770000000     0.769380000000     0.0364388  
C215     C      0.991530000000     0.502840000000     0.774980000000    -0.0808401  
C216     C      0.013590000000     0.514010000000     0.797170000000     0.0711703  
C217     C      0.000800000000     0.460710000000     0.808140000000     0.070633   
C218     C      0.978310000000     0.448650000000     0.786190000000    -0.0805012  
C219     C      0.930800000000     0.434400000000     0.524770000000    -0.0808464  
C220     C      0.949170000000     0.467480000000     0.519320000000     0.0364739  
C221     C      0.944200000000     0.488600000000     0.536190000000    -0.0805583  
C222     C      0.921700000000     0.476530000000     0.558070000000     0.0706989  
C223     C      0.908730000000     0.423210000000     0.546880000000     0.0711765  
C224     C      0.973520000000     0.479670000000     0.996320000000     0.0364399  
C225     C      0.991890000000     0.464960000000     0.990800000000    -0.0807556  
C226     C      0.013930000000     0.475860000000     0.968680000000     0.0711064  
C227     C      0.000950000000     0.516220000000     0.957590000000     0.0706181  
C228     C      0.978470000000     0.505770000000     0.979490000000    -0.0803849  
C229     C      0.427060000000     0.672550000000     0.856410000000    -0.0806108  
C230     C      0.438030000000     0.691290000000     0.880950000000     0.0363178  
C231     C      0.446630000000     0.678990000000     0.904070000000    -0.0808874  
C232     C      0.442540000000     0.648060000000     0.902830000000     0.0709114  
C233     C      0.423400000000     0.641790000000     0.855870000000     0.0706893  
C234     C      0.438090000000     0.722290000000     0.883020000000     0.0363544  
C235     C      0.446070000000     0.742860000000     0.859740000000    -0.0809316  
C236     C      0.442050000000     0.769740000000     0.861040000000     0.0709547  
C237     C      0.424220000000     0.757570000000     0.908330000000     0.070811   
C238     C      0.427820000000     0.730440000000     0.907750000000    -0.0807255  
C239     C      0.250630000000     0.483370000000     0.860740000000    -0.0807624  
C240     C      0.238370000000     0.491930000000     0.883890000000     0.0362318  
C241     C      0.257160000000     0.502810000000     0.908430000000    -0.0805609  
C242     C      0.287910000000     0.506420000000     0.908940000000     0.0706682  
C243     C      0.281550000000     0.487400000000     0.861940000000     0.0707906  
C244     C      0.207390000000     0.491930000000     0.881870000000     0.0363828  
C245     C      0.199250000000     0.502300000000     0.857170000000    -0.0806837  
C246     C      0.172130000000     0.505950000000     0.856620000000     0.0707149  
C247     C      0.159970000000     0.487960000000     0.903890000000     0.0708847  
C248     C      0.186830000000     0.483900000000     0.905140000000    -0.0809376  
C249     C      0.671210000000     0.452950000000     0.610220000000    -0.0808649  
C250     C      0.683790000000     0.444820000000     0.633440000000     0.0363204  
C251     C      0.665310000000     0.434320000000     0.658110000000    -0.0806033  
C252     C      0.634540000000     0.430670000000     0.658690000000     0.0707333  
C253     C      0.640290000000     0.448880000000     0.611500000000     0.0709177  
C254     C      0.714780000000     0.444850000000     0.631380000000     0.0362956  
C255     C      0.722690000000     0.434160000000     0.606760000000    -0.0806733  
C256     C      0.749850000000     0.430600000000     0.606200000000     0.0707671  
C257     C      0.762530000000     0.449290000000     0.653290000000     0.0708223  
C258     C      0.735630000000     0.453280000000     0.654550000000    -0.0808194  
C259     C      0.494710000000     0.263840000000     0.606960000000    -0.080679   
C260     C      0.484420000000     0.245420000000     0.631680000000     0.0363148  
C261     C      0.476400000000     0.258010000000     0.654940000000    -0.080828   
C262     C      0.480410000000     0.288900000000     0.653650000000     0.0708502  
C263     C      0.498310000000     0.294570000000     0.606370000000     0.0707942  
C264     C      0.484480000000     0.214490000000     0.633750000000     0.0363119  
C265     C      0.475930000000     0.193600000000     0.610630000000    -0.0808772  
C266     C      0.480030000000     0.166770000000     0.611870000000     0.0709009  
C267     C      0.499070000000     0.179610000000     0.658860000000     0.0707028  
C268     C      0.495410000000     0.206700000000     0.658310000000    -0.0806172  
C269     C      0.464650000000     0.502620000000     0.990570000000    -0.080796   
C270     C      0.450100000000     0.469530000000     0.995890000000     0.0364905  
C271     C      0.424190000000     0.448370000000     0.978800000000    -0.0805582  
C272     C      0.413770000000     0.460430000000     0.956870000000     0.0706952  
C273     C      0.453770000000     0.513800000000     0.968400000000     0.0711976  
C274     C      0.462250000000     0.457350000000     0.518940000000     0.0363675  
C275     C      0.495320000000     0.472210000000     0.524680000000    -0.080814   
C276     C      0.506450000000     0.461290000000     0.546840000000     0.0711781  
C277     C      0.453120000000     0.420620000000     0.557550000000     0.0706511  
C278     C      0.441100000000     0.431080000000     0.535600000000    -0.0804879  
C279     C      0.426660000000     0.464920000000     0.774120000000    -0.0808311  
C280     C      0.459770000000     0.479300000000     0.768870000000     0.0364276  
C281     C      0.481000000000     0.505110000000     0.785990000000    -0.0805547  
C282     C      0.469010000000     0.515590000000     0.807910000000     0.0707453  
C283     C      0.415550000000     0.475850000000     0.796280000000     0.0711372  
C284     C      0.471870000000     0.467080000000     0.745830000000     0.0364444  
C285     C      0.456830000000     0.434030000000     0.740060000000    -0.080882   
C286     C      0.467710000000     0.422840000000     0.717930000000     0.0711988  
C287     C      0.508660000000     0.476070000000     0.707330000000     0.070767   
C288     C      0.498250000000     0.488150000000     0.729240000000    -0.0805482  
Cd1      Cd     0.521970000000     0.407110000000     0.132500000000     0.510003   
Cd2      Cd     0.400130000000     0.529510000000     0.382360000000     0.509976   
Cd3      Cd     0.839090000000     0.407460000000     0.132540000000     0.509958   
Cd4      Cd     0.083380000000     0.529730000000     0.382920000000     0.509988   
Cd5      Cd     0.522380000000     0.090580000000     0.132420000000     0.509998   
Cd6      Cd     0.400470000000     0.846390000000     0.382190000000     0.509959   
Cd7      Cd     0.521970000000     0.407110000000     0.632500000000     0.510011   
Cd8      Cd     0.400130000000     0.529510000000     0.882360000000     0.509999   
Cd9      Cd     0.839090000000     0.407460000000     0.632540000000     0.510002   
Cd10     Cd     0.083380000000     0.529730000000     0.882920000000     0.509975   
Cd11     Cd     0.522380000000     0.090580000000     0.632420000000     0.509994   
Cd12     Cd     0.400470000000     0.846390000000     0.882190000000     0.50996    
H1       H      0.485420000000     0.940890000000     0.261880000000     0.0563206  
H2       H      0.467020000000     0.902870000000     0.300410000000     0.0365481  
H3       H      0.393530000000     0.925500000000     0.319930000000     0.035208   
H4       H      0.412020000000     0.964710000000     0.282010000000     0.0559707  
H5       H      0.415620000000     0.971270000000     0.231830000000     0.0559936  
H6       H      0.436240000000     0.010490000000     0.193910000000     0.0351948  
H7       H      0.532640000000     0.035110000000     0.214960000000     0.0365981  
H8       H      0.513110000000     0.997100000000     0.253490000000     0.0563093  
H9       H      0.438270000000     0.996990000000     0.011170000000     0.0563062  
H10      H      0.456670000000     0.034990000000     0.049770000000     0.0365798  
H11      H      0.528740000000     0.010750000000     0.070690000000     0.0351807  
H12      H      0.510220000000     0.971550000000     0.532680000000     0.0560476  
H13      H      0.507210000000     0.965010000000     0.482460000000     0.0560097  
H14      H      0.486540000000     0.925780000000     0.444470000000     0.0352049  
H15      H      0.390320000000     0.902710000000     0.464130000000     0.0366033  
H16      H      0.409890000000     0.940750000000     0.002710000000     0.0562656  
H17      H      0.215250000000     0.681410000000     0.426700000000     0.0561318  
H18      H      0.167970000000     0.628300000000     0.428160000000     0.0351906  
H19      H      0.144880000000     0.638850000000     0.343200000000     0.0361185  
H20      H      0.191530000000     0.692550000000     0.341210000000     0.0559734  
H21      H      0.248550000000     0.714760000000     0.338460000000     0.0561514  
H22      H      0.301740000000     0.761940000000     0.336990000000     0.0351807  
H23      H      0.291370000000     0.784980000000     0.421970000000     0.0361359  
H24      H      0.237590000000     0.738430000000     0.423970000000     0.0559445  
H25      H      0.730930000000     0.244490000000     0.090860000000     0.0559816  
H26      H      0.777510000000     0.298260000000     0.092800000000     0.0361312  
H27      H      0.755030000000     0.308860000000     0.177900000000     0.035186   
H28      H      0.707840000000     0.255670000000     0.176490000000     0.0561721  
H29      H      0.685640000000     0.198620000000     0.173650000000     0.0559723  
H30      H      0.631880000000     0.152010000000     0.171760000000     0.036152   
H31      H      0.620660000000     0.175030000000     0.086970000000     0.0351906  
H32      H      0.673830000000     0.222250000000     0.088330000000     0.0561311  
H33      H      0.958040000000     0.419730000000     0.232610000000     0.0560232  
H34      H      0.918840000000     0.401160000000     0.194560000000     0.0352134  
H35      H      0.894790000000     0.473430000000     0.215010000000     0.0365816  
H36      H      0.932780000000     0.491880000000     0.253670000000     0.0563282  
H37      H      0.989020000000     0.520160000000     0.262210000000     0.0563231  
H38      H      0.027070000000     0.539780000000     0.300820000000     0.0365795  
H39      H      0.003790000000     0.443600000000     0.320840000000     0.0352196  
H40      H      0.964550000000     0.422890000000     0.282830000000     0.0559923  
H41      H      0.958040000000     0.514370000000     0.532950000000     0.0560037  
H42      H      0.918780000000     0.493650000000     0.070830000000     0.0352062  
H43      H      0.895180000000     0.397440000000     0.050420000000     0.0365956  
H44      H      0.933230000000     0.417070000000     0.011940000000     0.0563004  
H45      H      0.989460000000     0.445190000000     0.003600000000     0.0562755  
H46      H      0.027480000000     0.463640000000     0.465090000000     0.0365633  
H47      H      0.003860000000     0.536270000000     0.444870000000     0.0352162  
H48      H      0.964630000000     0.517710000000     0.482780000000     0.0559381  
H49      H      0.455870000000     0.692880000000     0.423250000000     0.0559843  
H50      H      0.448630000000     0.639090000000     0.421440000000     0.0361477  
H51      H      0.413860000000     0.627700000000     0.336780000000     0.0351885  
H52      H      0.419880000000     0.680880000000     0.338070000000     0.0561093  
H53      H      0.454770000000     0.737930000000     0.340400000000     0.0559896  
H54      H      0.447650000000     0.784540000000     0.342320000000     0.0361166  
H55      H      0.415230000000     0.762420000000     0.427590000000     0.0352074  
H56      H      0.421140000000     0.715190000000     0.426210000000     0.0561435  
H57      H      0.248860000000     0.509960000000     0.426790000000     0.0561145  
H58      H      0.302030000000     0.515880000000     0.428020000000     0.0351806  
H59      H      0.290480000000     0.481330000000     0.343310000000     0.0361618  
H60      H      0.236710000000     0.474200000000     0.341550000000     0.0559354  
H61      H      0.214490000000     0.509030000000     0.338710000000     0.0561584  
H62      H      0.167290000000     0.515020000000     0.337410000000     0.0351903  
H63      H      0.145170000000     0.482310000000     0.422610000000     0.0361378  
H64      H      0.191760000000     0.475120000000     0.424450000000     0.0559845  
H65      H      0.673850000000     0.427500000000     0.176530000000     0.0561412  
H66      H      0.620660000000     0.421510000000     0.177890000000     0.0351905  
H67      H      0.631110000000     0.454620000000     0.092820000000     0.0361155  
H68      H      0.684890000000     0.461830000000     0.090920000000     0.0559432  
H69      H      0.707230000000     0.427130000000     0.088380000000     0.0561261  
H70      H      0.754510000000     0.421280000000     0.087050000000     0.0351921  
H71      H      0.777550000000     0.455240000000     0.171940000000     0.0361527  
H72      H      0.730890000000     0.462310000000     0.173800000000     0.0559411  
H73      H      0.467670000000     0.244380000000     0.174280000000     0.0559415  
H74      H      0.474780000000     0.298090000000     0.172360000000     0.0361145  
H75      H      0.507320000000     0.308410000000     0.087130000000     0.0351842  
H76      H      0.501430000000     0.255280000000     0.088510000000     0.0561412  
H77      H      0.466720000000     0.198250000000     0.091430000000     0.0559638  
H78      H      0.473970000000     0.151710000000     0.093250000000     0.0361338  
H79      H      0.508570000000     0.175040000000     0.177960000000     0.035193   
H80      H      0.502550000000     0.222200000000     0.176660000000     0.0561047  
H81      H      0.412390000000     0.422590000000     0.481930000000     0.0560041  
H82      H      0.393870000000     0.443300000000     0.443950000000     0.035223   
H83      H      0.465870000000     0.539590000000     0.464980000000     0.0365749  
H84      H      0.484270000000     0.519960000000     0.003560000000     0.0562571  
H85      H      0.512670000000     0.492120000000     0.012010000000     0.0563044  
H86      H      0.532210000000     0.473640000000     0.050600000000     0.0365683  
H87      H      0.435980000000     0.400440000000     0.070130000000     0.0352262  
H88      H      0.415340000000     0.419020000000     0.032140000000     0.0559683  
H89      H      0.506790000000     0.516770000000     0.282910000000     0.0559968  
H90      H      0.486210000000     0.535400000000     0.320860000000     0.0351919  
H91      H      0.389760000000     0.463890000000     0.299660000000     0.0365803  
H92      H      0.409260000000     0.445390000000     0.261100000000     0.0563136  
H93      H      0.436830000000     0.416740000000     0.252670000000     0.0563211  
H94      H      0.455240000000     0.397100000000     0.214150000000     0.0365583  
H95      H      0.528940000000     0.493160000000     0.194810000000     0.0351951  
H96      H      0.510440000000     0.513900000000     0.232730000000     0.0559732  
H97      H      0.485420000000     0.940890000000     0.761890000000     0.0563524  
H98      H      0.467020000000     0.902870000000     0.800410000000     0.0365427  
H99      H      0.393530000000     0.925500000000     0.819930000000     0.0352143  
H100     H      0.412020000000     0.964710000000     0.782010000000     0.0559796  
H101     H      0.415620000000     0.971270000000     0.731830000000     0.0559922  
H102     H      0.436240000000     0.010490000000     0.693910000000     0.0351981  
H103     H      0.532640000000     0.035110000000     0.714960000000     0.0365973  
H104     H      0.513110000000     0.997100000000     0.753490000000     0.0562865  
H105     H      0.438270000000     0.996990000000     0.511170000000     0.0563077  
H106     H      0.456660000000     0.034990000000     0.549780000000     0.0365897  
H107     H      0.528740000000     0.010750000000     0.570690000000     0.0351848  
H108     H      0.510220000000     0.971550000000     0.032680000000     0.0560214  
H109     H      0.507210000000     0.965010000000     0.982460000000     0.0560517  
H110     H      0.486540000000     0.925770000000     0.944470000000     0.0352144  
H111     H      0.390320000000     0.902710000000     0.964130000000     0.0366054  
H112     H      0.409890000000     0.940750000000     0.502710000000     0.0563085  
H113     H      0.215250000000     0.681410000000     0.926700000000     0.0561387  
H114     H      0.167970000000     0.628300000000     0.928170000000     0.0352006  
H115     H      0.144880000000     0.638850000000     0.843210000000     0.0361184  
H116     H      0.191530000000     0.692550000000     0.841210000000     0.0559751  
H117     H      0.248550000000     0.714760000000     0.838460000000     0.0561517  
H118     H      0.301740000000     0.761940000000     0.836990000000     0.0351833  
H119     H      0.291370000000     0.784980000000     0.921970000000     0.0361404  
H120     H      0.237590000000     0.738430000000     0.923970000000     0.0559525  
H121     H      0.730930000000     0.244490000000     0.590860000000     0.0559862  
H122     H      0.777510000000     0.298260000000     0.592800000000     0.0361343  
H123     H      0.755030000000     0.308860000000     0.677900000000     0.0351879  
H124     H      0.707840000000     0.255670000000     0.676490000000     0.0561745  
H125     H      0.685640000000     0.198620000000     0.673650000000     0.0559733  
H126     H      0.631880000000     0.152010000000     0.671750000000     0.0361528  
H127     H      0.620660000000     0.175030000000     0.586970000000     0.0351956  
H128     H      0.673830000000     0.222250000000     0.588330000000     0.0561343  
H129     H      0.958040000000     0.419730000000     0.732610000000     0.056019   
H130     H      0.918840000000     0.401160000000     0.694560000000     0.0352173  
H131     H      0.894790000000     0.473430000000     0.715010000000     0.0365878  
H132     H      0.932780000000     0.491880000000     0.753670000000     0.0563195  
H133     H      0.989020000000     0.520160000000     0.762210000000     0.0563346  
H134     H      0.027070000000     0.539780000000     0.800820000000     0.0365787  
H135     H      0.003790000000     0.443600000000     0.820840000000     0.0352183  
H136     H      0.964550000000     0.422890000000     0.782830000000     0.0560057  
H137     H      0.958040000000     0.514370000000     0.032950000000     0.0559763  
H138     H      0.918780000000     0.493650000000     0.570830000000     0.0352064  
H139     H      0.895180000000     0.397440000000     0.550420000000     0.0365781  
H140     H      0.933240000000     0.417070000000     0.511940000000     0.0563048  
H141     H      0.989460000000     0.445190000000     0.503600000000     0.0563256  
H142     H      0.027470000000     0.463640000000     0.965090000000     0.0365944  
H143     H      0.003860000000     0.536270000000     0.944870000000     0.0352278  
H144     H      0.964630000000     0.517710000000     0.982780000000     0.0559621  
H145     H      0.455870000000     0.692880000000     0.923250000000     0.0559913  
H146     H      0.448630000000     0.639090000000     0.921440000000     0.036149   
H147     H      0.413860000000     0.627700000000     0.836790000000     0.0351851  
H148     H      0.419880000000     0.680880000000     0.838070000000     0.0561084  
H149     H      0.454770000000     0.737930000000     0.840400000000     0.0559928  
H150     H      0.447650000000     0.784540000000     0.842320000000     0.0361173  
H151     H      0.415230000000     0.762420000000     0.927580000000     0.0351921  
H152     H      0.421140000000     0.715190000000     0.926210000000     0.0561684  
H153     H      0.248860000000     0.509960000000     0.926790000000     0.0561046  
H154     H      0.302030000000     0.515880000000     0.928020000000     0.0352055  
H155     H      0.290480000000     0.481330000000     0.843310000000     0.0361665  
H156     H      0.236710000000     0.474200000000     0.841550000000     0.0559338  
H157     H      0.214490000000     0.509030000000     0.838710000000     0.0561577  
H158     H      0.167290000000     0.515020000000     0.837410000000     0.0351925  
H159     H      0.145170000000     0.482310000000     0.922610000000     0.0361444  
H160     H      0.191760000000     0.475120000000     0.924450000000     0.0559956  
H161     H      0.673850000000     0.427500000000     0.676540000000     0.0561024  
H162     H      0.620660000000     0.421510000000     0.677890000000     0.0352014  
H163     H      0.631110000000     0.454620000000     0.592820000000     0.0361213  
H164     H      0.684890000000     0.461830000000     0.590920000000     0.0559454  
H165     H      0.707230000000     0.427120000000     0.588380000000     0.0561347  
H166     H      0.754510000000     0.421280000000     0.587050000000     0.0351897  
H167     H      0.777540000000     0.455240000000     0.671940000000     0.0361469  
H168     H      0.730890000000     0.462310000000     0.673800000000     0.0559482  
H169     H      0.467670000000     0.244380000000     0.674280000000     0.0559438  
H170     H      0.474780000000     0.298090000000     0.672360000000     0.0361168  
H171     H      0.507320000000     0.308410000000     0.587130000000     0.035188   
H172     H      0.501430000000     0.255280000000     0.588510000000     0.056145   
H173     H      0.466720000000     0.198250000000     0.591430000000     0.0559681  
H174     H      0.473970000000     0.151710000000     0.593250000000     0.036138   
H175     H      0.508570000000     0.175040000000     0.677960000000     0.0351947  
H176     H      0.502550000000     0.222200000000     0.676660000000     0.0561066  
H177     H      0.412400000000     0.422590000000     0.981930000000     0.0560237  
H178     H      0.393870000000     0.443290000000     0.943950000000     0.0352175  
H179     H      0.465870000000     0.539590000000     0.964980000000     0.0366007  
H180     H      0.484260000000     0.519960000000     0.503560000000     0.0563222  
H181     H      0.512670000000     0.492120000000     0.512010000000     0.0562927  
H182     H      0.532210000000     0.473640000000     0.550600000000     0.0365705  
H183     H      0.435980000000     0.400440000000     0.570130000000     0.0352298  
H184     H      0.415340000000     0.419020000000     0.532140000000     0.0559831  
H185     H      0.506790000000     0.516770000000     0.782910000000     0.0559984  
H186     H      0.486210000000     0.535400000000     0.820860000000     0.0351972  
H187     H      0.389760000000     0.463890000000     0.799660000000     0.0365945  
H188     H      0.409260000000     0.445390000000     0.761100000000     0.0563091  
H189     H      0.436830000000     0.416740000000     0.752670000000     0.0563325  
H190     H      0.455230000000     0.397100000000     0.714140000000     0.0365532  
H191     H      0.528940000000     0.493160000000     0.694800000000     0.0352073  
H192     H      0.510440000000     0.513900000000     0.732730000000     0.0559857  
N1       N      0.429090000000     0.911580000000     0.313050000000    -0.178592   
N2       N      0.485860000000     0.025410000000     0.201550000000    -0.178539   
N3       N      0.493890000000     0.025470000000     0.063120000000    -0.178552   
N4       N      0.437020000000     0.911630000000     0.451410000000    -0.178539   
N5       N      0.153480000000     0.629470000000     0.385600000000    -0.178635   
N6       N      0.300670000000     0.776400000000     0.379560000000    -0.178692   
N7       N      0.769210000000     0.307670000000     0.135260000000    -0.178703   
N8       N      0.622160000000     0.160570000000     0.129460000000    -0.178623   
N9       N      0.904210000000     0.436100000000     0.201900000000    -0.178514   
N10      N      0.018040000000     0.493110000000     0.313720000000    -0.178529   
N11      N      0.904360000000     0.444120000000     0.063500000000    -0.178525   
N12      N      0.018270000000     0.501140000000     0.452090000000    -0.178563   
N13      N      0.430080000000     0.629290000000     0.379220000000    -0.178571   
N14      N      0.430270000000     0.776420000000     0.384860000000    -0.178653   
N15      N      0.300370000000     0.499770000000     0.385560000000    -0.178676   
N16      N      0.153290000000     0.499840000000     0.380100000000    -0.178616   
N17      N      0.621770000000     0.436890000000     0.135260000000    -0.178718   
N18      N      0.768980000000     0.437100000000     0.129590000000    -0.178618   
N19      N      0.492220000000     0.307360000000     0.129830000000    -0.178665   
N20      N      0.492440000000     0.160440000000     0.135500000000    -0.178578   
N21      N      0.428680000000     0.492870000000     0.451580000000    -0.178558   
N22      N      0.485510000000     0.435840000000     0.063250000000    -0.1785     
N23      N      0.436570000000     0.500830000000     0.313140000000    -0.17852    
N24      N      0.493280000000     0.443710000000     0.201600000000    -0.178547   
N25      N      0.429090000000     0.911580000000     0.813050000000    -0.178592   
N26      N      0.485860000000     0.025410000000     0.701550000000    -0.178539   
N27      N      0.493890000000     0.025470000000     0.563120000000    -0.17858    
N28      N      0.437020000000     0.911630000000     0.951420000000    -0.178504   
N29      N      0.153480000000     0.629470000000     0.885600000000    -0.178634   
N30      N      0.300670000000     0.776400000000     0.879560000000    -0.178691   
N31      N      0.769210000000     0.307670000000     0.635260000000    -0.178703   
N32      N      0.622160000000     0.160570000000     0.629460000000    -0.178618   
N33      N      0.904210000000     0.436100000000     0.701900000000    -0.178509   
N34      N      0.018040000000     0.493110000000     0.813720000000    -0.178534   
N35      N      0.904370000000     0.444120000000     0.563500000000    -0.178498   
N36      N      0.018270000000     0.501140000000     0.952090000000    -0.178502   
N37      N      0.430080000000     0.629290000000     0.879220000000    -0.178602   
N38      N      0.430270000000     0.776420000000     0.884860000000    -0.178689   
N39      N      0.300370000000     0.499770000000     0.885560000000    -0.178635   
N40      N      0.153290000000     0.499840000000     0.880100000000    -0.178615   
N41      N      0.621770000000     0.436890000000     0.635260000000    -0.178711   
N42      N      0.768980000000     0.437100000000     0.629590000000    -0.178637   
N43      N      0.492220000000     0.307360000000     0.629830000000    -0.178664   
N44      N      0.492440000000     0.160440000000     0.635500000000    -0.178577   
N45      N      0.428680000000     0.492870000000     0.951580000000    -0.178556   
N46      N      0.485510000000     0.435840000000     0.563250000000    -0.1785     
N47      N      0.436570000000     0.500830000000     0.813150000000    -0.178561   
N48      N      0.493280000000     0.443710000000     0.701600000000    -0.178577   
O1       O      0.576920000000     0.432470000000     0.113120000000    -0.244069   
O2       O      0.496740000000     0.352220000000     0.151970000000    -0.244074   
O3       O      0.526550000000     0.440680000000     0.091870000000    -0.244991   
O4       O      0.527000000000     0.450390000000     0.164310000000    -0.2503     
O5       O      0.488280000000     0.402640000000     0.173000000000    -0.244933   
O6       O      0.478700000000     0.402210000000     0.100660000000    -0.250393   
O7       O      0.572060000000     0.417290000000     0.156250000000    -0.251001   
O8       O      0.511650000000     0.357010000000     0.108770000000    -0.250977   
O9       O      0.426070000000     0.584690000000     0.401410000000    -0.243909   
O10      O      0.344920000000     0.503730000000     0.363330000000    -0.243832   
O11      O      0.433330000000     0.534030000000     0.423350000000    -0.24481    
O12      O      0.443480000000     0.534050000000     0.350950000000    -0.250604   
O13      O      0.395460000000     0.496360000000     0.341330000000    -0.244868   
O14      O      0.395420000000     0.486100000000     0.413800000000    -0.250537   
O15      O      0.409950000000     0.579330000000     0.358490000000    -0.251109   
O16      O      0.350350000000     0.519760000000     0.406260000000    -0.251191   
O17      O      0.809580000000     0.433000000000     0.151770000000    -0.243822   
O18      O      0.809570000000     0.352470000000     0.113150000000    -0.243973   
O19      O      0.867800000000     0.440780000000     0.173450000000    -0.244755   
O20      O      0.877620000000     0.450840000000     0.101020000000    -0.250545   
O21      O      0.868010000000     0.402990000000     0.091810000000    -0.244913   
O22      O      0.877670000000     0.402720000000     0.164200000000    -0.250387   
O23      O      0.799040000000     0.417360000000     0.108720000000    -0.250973   
O24      O      0.799290000000     0.357430000000     0.156270000000    -0.251096   
O25      O      0.054360000000     0.534220000000     0.342200000000    -0.244813   
O26      O      0.054560000000     0.496350000000     0.423670000000    -0.244948   
O27      O      0.112880000000     0.584670000000     0.363530000000    -0.243924   
O28      O      0.123100000000     0.519410000000     0.359120000000    -0.250993   
O29      O      0.113010000000     0.504370000000     0.402300000000    -0.244002   
O30      O      0.123430000000     0.579770000000     0.406610000000    -0.251129   
O31      O      0.044860000000     0.486380000000     0.351240000000    -0.250408   
O32      O      0.044940000000     0.534600000000     0.414570000000    -0.250429   
O33      O      0.489200000000     0.061940000000     0.091410000000    -0.24466    
O34      O      0.526990000000     0.061990000000     0.173360000000    -0.244848   
O35      O      0.496510000000     0.119860000000     0.113320000000    -0.243802   
O36      O      0.572250000000     0.130590000000     0.108620000000    -0.251148   
O37      O      0.577520000000     0.120010000000     0.151590000000    -0.243885   
O38      O      0.512510000000     0.130580000000     0.156270000000    -0.25107    
O39      O      0.527150000000     0.051960000000     0.100910000000    -0.250502   
O40      O      0.479000000000     0.051830000000     0.163820000000    -0.250566   
O41      O      0.395940000000     0.875410000000     0.422840000000    -0.244845   
O42      O      0.434070000000     0.875500000000     0.341630000000    -0.244973   
O43      O      0.345540000000     0.816900000000     0.401620000000    -0.244057   
O44      O      0.410840000000     0.806650000000     0.405930000000    -0.250992   
O45      O      0.425700000000     0.816710000000     0.362710000000    -0.244084   
O46      O      0.350360000000     0.806410000000     0.358520000000    -0.250952   
O47      O      0.443790000000     0.884790000000     0.413980000000    -0.250297   
O48      O      0.395430000000     0.884640000000     0.350390000000    -0.25039    
O49      O      0.576920000000     0.432470000000     0.613120000000    -0.244066   
O50      O      0.496740000000     0.352220000000     0.651970000000    -0.244065   
O51      O      0.526550000000     0.440680000000     0.591870000000    -0.244992   
O52      O      0.527000000000     0.450390000000     0.664320000000    -0.250376   
O53      O      0.488290000000     0.402640000000     0.673000000000    -0.244974   
O54      O      0.478700000000     0.402210000000     0.600660000000    -0.250395   
O55      O      0.572060000000     0.417290000000     0.656250000000    -0.250992   
O56      O      0.511650000000     0.357010000000     0.608770000000    -0.250973   
O57      O      0.426070000000     0.584690000000     0.901410000000    -0.243855   
O58      O      0.344920000000     0.503730000000     0.863330000000    -0.243824   
O59      O      0.433330000000     0.534030000000     0.923350000000    -0.244806   
O60      O      0.443480000000     0.534050000000     0.850950000000    -0.250625   
O61      O      0.395460000000     0.496360000000     0.841330000000    -0.24489    
O62      O      0.395420000000     0.486100000000     0.913800000000    -0.250532   
O63      O      0.409950000000     0.579330000000     0.858500000000    -0.251314   
O64      O      0.350350000000     0.519760000000     0.906260000000    -0.251178   
O65      O      0.809580000000     0.433000000000     0.651770000000    -0.243854   
O66      O      0.809570000000     0.352470000000     0.613150000000    -0.243965   
O67      O      0.867800000000     0.440780000000     0.673450000000    -0.244752   
O68      O      0.877620000000     0.450840000000     0.601020000000    -0.250501   
O69      O      0.868000000000     0.402990000000     0.591820000000    -0.244869   
O70      O      0.877670000000     0.402720000000     0.664200000000    -0.250384   
O71      O      0.799040000000     0.417360000000     0.608730000000    -0.251096   
O72      O      0.799290000000     0.357430000000     0.656270000000    -0.251092   
O73      O      0.054360000000     0.534220000000     0.842200000000    -0.24481    
O74      O      0.054560000000     0.496350000000     0.923680000000    -0.245015   
O75      O      0.112880000000     0.584670000000     0.863540000000    -0.244012   
O76      O      0.123100000000     0.519410000000     0.859120000000    -0.250993   
O77      O      0.113010000000     0.504370000000     0.902300000000    -0.243996   
O78      O      0.123430000000     0.579770000000     0.906620000000    -0.251032   
O79      O      0.044860000000     0.486380000000     0.851240000000    -0.250412   
O80      O      0.044940000000     0.534600000000     0.914570000000    -0.250526   
O81      O      0.489200000000     0.061940000000     0.591410000000    -0.244787   
O82      O      0.526990000000     0.061990000000     0.673360000000    -0.244851   
O83      O      0.496510000000     0.119860000000     0.613320000000    -0.243794   
O84      O      0.572250000000     0.130590000000     0.608620000000    -0.251141   
O85      O      0.577520000000     0.120010000000     0.651590000000    -0.243883   
O86      O      0.512510000000     0.130580000000     0.656270000000    -0.251068   
O87      O      0.527150000000     0.051960000000     0.600900000000    -0.2505     
O88      O      0.479000000000     0.051830000000     0.663820000000    -0.250566   
O89      O      0.395940000000     0.875410000000     0.922840000000    -0.244821   
O90      O      0.434070000000     0.875500000000     0.841630000000    -0.244971   
O91      O      0.345540000000     0.816900000000     0.901620000000    -0.243966   
O92      O      0.410840000000     0.806650000000     0.905930000000    -0.250991   
O93      O      0.425700000000     0.816710000000     0.862710000000    -0.244082   
O94      O      0.350360000000     0.806410000000     0.858520000000    -0.251033   
O95      O      0.443790000000     0.884790000000     0.913980000000    -0.250274   
O96      O      0.395430000000     0.884640000000     0.850390000000    -0.250389   


