data_structure

_audit_creation_method RASPA-1.0
_audit_creation_date 2023-6-5
_audit_author_name 'Poobodin Mano'

_cell_length_a    44.9049
_cell_length_b    43.7684
_cell_length_c    25.004
_cell_angle_alpha 90.0398
_cell_angle_beta  89.8799
_cell_angle_gamma 90
_cell_volume      49143.1

_symmetry_cell_setting          triclinic
_symmetry_space_group_name_Hall 'P 1'
_symmetry_space_group_name_H-M  'P 1'
_symmetry_Int_Tables_number     1

_symmetry_equiv_pos_as_xyz 'x,y,z'

loop_
_atom_site_label
_atom_site_type_symbol
_atom_site_fract_x
_atom_site_fract_y
_atom_site_fract_z
_atom_site_charge
C1       C      0.392340000000     0.322550000000     0.976880000000     0.351291   
C2       C      0.302300000000     0.308480000000     0.065780000000     0.347493   
C3       C      0.324930000000     0.398800000000     0.953640000000     0.347642   
C4       C      0.296070000000     0.307730000000     0.880970000000     0.348609   
C5       C      0.331090000000     0.623460000000     0.959230000000     0.347999   
C6       C      0.310440000000     0.711390000000     0.059900000000     0.34789    
C7       C      0.401510000000     0.700940000000     0.954820000000     0.348909   
C8       C      0.309250000000     0.720360000000     0.875340000000     0.349038   
C9       C      0.610990000000     0.332400000000     0.980560000000     0.352143   
C10      C      0.702950000000     0.315640000000     0.886660000000     0.350804   
C11      C      0.674250000000     0.409450000000     0.981360000000     0.348974   
C12      C      0.702110000000     0.315230000000     0.070780000000     0.346097   
C13      C      0.713710000000     0.719800000000     0.873390000000     0.349131   
C14      C      0.682040000000     0.634180000000     0.977040000000     0.348489   
C15      C      0.708870000000     0.729090000000     0.061380000000     0.350676   
C16      C      0.619360000000     0.713600000000     0.955660000000     0.351127   
C17      C      0.793450000000     0.223000000000     0.566280000000     0.349107   
C18      C      0.819790000000     0.127180000000     0.476320000000     0.350417   
C19      C      0.796220000000     0.218210000000     0.383360000000     0.348596   
C20      C      0.888030000000     0.200780000000     0.481450000000     0.347538   
C21      C      0.817550000000     0.808230000000     0.562610000000     0.35166    
C22      C      0.906620000000     0.826760000000     0.469350000000     0.349221   
C23      C      0.812020000000     0.813100000000     0.376440000000     0.347713   
C24      C      0.835290000000     0.902800000000     0.466910000000     0.349581   
C25      C      0.219660000000     0.804690000000     0.379300000000     0.349334   
C26      C      0.125540000000     0.829820000000     0.457350000000     0.345443   
C27      C      0.213860000000     0.816150000000     0.563490000000     0.345812   
C28      C      0.194130000000     0.904190000000     0.462480000000     0.350449   
C29      C      0.202290000000     0.223630000000     0.383320000000     0.353568   
C30      C      0.181670000000     0.128370000000     0.459390000000     0.347364   
C31      C      0.194480000000     0.222660000000     0.565850000000     0.347229   
C32      C      0.107130000000     0.201130000000     0.469610000000     0.350835   
C33      C      0.172360000000     0.079520000000     0.415880000000     0.0571613  
C34      C      0.203520000000     0.083240000000     0.492580000000     0.0715989  
C35      C      0.175230000000     0.047580000000     0.417270000000    -0.0645937  
C36      C      0.198010000000     0.982430000000     0.411520000000    -0.0806181  
C37      C      0.206870000000     0.051590000000     0.494130000000    -0.0755486  
C38      C      0.194650000000     0.999480000000     0.458590000000     0.0412878  
C39      C      0.192340000000     0.033330000000     0.456640000000     0.0344029  
C40      C      0.198350000000     0.950570000000     0.413690000000     0.0762085  
C41      C      0.192810000000     0.951920000000     0.508000000000     0.0750441  
C42      C      0.192460000000     0.983840000000     0.507300000000    -0.0800654  
C43      C      0.953980000000     0.818130000000     0.514700000000     0.0574617  
C44      C      0.951550000000     0.825990000000     0.420570000000     0.071701   
C45      C      0.985260000000     0.817980000000     0.511480000000    -0.0646239  
C46      C      0.050370000000     0.802940000000     0.489380000000    -0.0787788  
C47      C      0.982490000000     0.825540000000     0.416660000000    -0.076127   
C48      C      0.032830000000     0.823050000000     0.459340000000     0.0409698  
C49      C      0.999770000000     0.822020000000     0.462470000000     0.0346981  
C50      C      0.081400000000     0.805130000000     0.487460000000     0.0759272  
C51      C      0.078220000000     0.846320000000     0.426210000000     0.0744639  
C52      C      0.047170000000     0.844720000000     0.427070000000    -0.0800903  
C53      C      0.807660000000     0.078030000000     0.517090000000     0.0596743  
C54      C      0.830460000000     0.081210000000     0.431170000000     0.0743945  
C55      C      0.810030000000     0.046010000000     0.514910000000    -0.0644     
C56      C      0.802930000000     0.978680000000     0.487790000000    -0.0800863  
C57      C      0.832570000000     0.049520000000     0.428130000000    -0.0748336  
C58      C      0.825700000000     0.997670000000     0.468630000000     0.0416696  
C59      C      0.822700000000     0.031500000000     0.470550000000     0.0355928  
C60      C      0.806430000000     0.946970000000     0.486600000000     0.0759553  
C61      C      0.854290000000     0.952270000000     0.447480000000     0.0750913  
C62      C      0.851550000000     0.984050000000     0.448100000000    -0.0803536  
C63      C      0.059430000000     0.203390000000     0.422830000000     0.0605311  
C64      C      0.062260000000     0.206130000000     0.517860000000     0.0734067  
C65      C      0.028200000000     0.204230000000     0.426400000000    -0.067349   
C66      C      0.963670000000     0.222080000000     0.441620000000    -0.0792344  
C67      C      0.031330000000     0.207380000000     0.521900000000    -0.0757932  
C68      C      0.980790000000     0.206220000000     0.479310000000     0.0404731  
C69      C      0.013880000000     0.206150000000     0.475930000000     0.0365154  
C70      C      0.932640000000     0.220380000000     0.443410000000     0.0747538  
C71      C      0.934890000000     0.188510000000     0.519930000000     0.0741713  
C72      C      0.965980000000     0.189600000000     0.519190000000    -0.0791698  
C73      C      0.749850000000     0.712430000000     0.801300000000     0.0593576  
C74      C      0.723160000000     0.759130000000     0.811490000000     0.07585    
C75      C      0.765460000000     0.725190000000     0.757850000000    -0.0642936  
C76      C      0.781090000000     0.751600000000     0.648340000000    -0.0796232  
C77      C      0.738280000000     0.771970000000     0.768370000000    -0.073896   
C78      C      0.776050000000     0.768610000000     0.694980000000     0.0427328  
C79      C      0.759840000000     0.755110000000     0.741180000000     0.0359387  
C80      C      0.795350000000     0.765090000000     0.604610000000     0.0776231  
C81      C      0.800360000000     0.811620000000     0.652380000000     0.0777937  
C82      C      0.786100000000     0.798890000000     0.696750000000    -0.079616   
C83      C      0.727030000000     0.773880000000     0.109850000000     0.0571233  
C84      C      0.731330000000     0.723700000000     0.145880000000     0.0717402  
C85      C      0.742000000000     0.785480000000     0.154860000000    -0.0654093  
C86      C      0.758280000000     0.805760000000     0.267300000000    -0.0804096  
C87      C      0.745950000000     0.734910000000     0.190850000000    -0.0757462  
C88      C      0.767440000000     0.778390000000     0.243260000000     0.0409139  
C89      C      0.751630000000     0.766080000000     0.195680000000     0.0347033  
C90      C      0.773460000000     0.817050000000     0.311820000000     0.0746576  
C91      C      0.806540000000     0.774830000000     0.309630000000     0.0744408  
C92      C      0.791880000000     0.762900000000     0.265050000000    -0.0802071  
C93      C      0.749070000000     0.233430000000     0.619590000000     0.0583542  
C94      C      0.796290000000     0.254360000000     0.642710000000     0.0726361  
C95      C      0.736850000000     0.246120000000     0.666400000000    -0.0669394  
C96      C      0.721690000000     0.260010000000     0.782550000000    -0.0800234  
C97      C      0.784370000000     0.267610000000     0.688660000000    -0.0760733  
C98      C      0.741400000000     0.276830000000     0.750590000000     0.0411253  
C99      C      0.754440000000     0.263230000000     0.701390000000     0.0355733  
C100     C      0.709260000000     0.273260000000     0.828230000000     0.075685   
C101     C      0.735390000000     0.319390000000     0.811650000000     0.0751675  
C102     C      0.748330000000     0.306800000000     0.765820000000    -0.0802475  
C103     C      0.764770000000     0.213510000000     0.304220000000     0.0585854  
C104     C      0.788240000000     0.260550000000     0.327070000000     0.0725028  
C105     C      0.751130000000     0.227960000000     0.260440000000    -0.066914   
C106     C      0.712290000000     0.267610000000     0.189610000000    -0.0799603  
C107     C      0.775140000000     0.275070000000     0.283510000000    -0.0759088  
C108     C      0.741910000000     0.274000000000     0.203110000000     0.040639   
C109     C      0.756180000000     0.258870000000     0.249750000000     0.0355135  
C110     C      0.699330000000     0.281660000000     0.145290000000     0.0749618  
C111     C      0.744130000000     0.308470000000     0.127350000000     0.0739763  
C112     C      0.757810000000     0.294790000000     0.171400000000    -0.080158   
C113     C      0.651310000000     0.458180000000     0.959500000000     0.0578868  
C114     C      0.697350000000     0.455630000000     0.006510000000     0.0720691  
C115     C      0.653430000000     0.490180000000     0.958910000000    -0.0646775  
C116     C      0.653800000000     0.556410000000     0.993900000000    -0.0805686  
C117     C      0.699610000000     0.487410000000     0.006760000000    -0.0755355  
C118     C      0.679220000000     0.538950000000     0.982930000000     0.0419205  
C119     C      0.677570000000     0.505050000000     0.982610000000     0.034741   
C120     C      0.655290000000     0.588230000000     0.992360000000     0.0768285  
C121     C      0.706600000000     0.586100000000     0.970010000000     0.0768765  
C122     C      0.705930000000     0.554160000000     0.971430000000    -0.0787979  
C123     C      0.208560000000     0.793850000000     0.652280000000     0.0566844  
C124     C      0.256280000000     0.804150000000     0.614630000000     0.0718949  
C125     C      0.222410000000     0.780160000000     0.696550000000    -0.0671281  
C126     C      0.256380000000     0.736390000000     0.767810000000    -0.0803658  
C127     C      0.270350000000     0.791070000000     0.658630000000    -0.0745433  
C128     C      0.268020000000     0.763440000000     0.746320000000     0.0410199  
C129     C      0.253430000000     0.778440000000     0.699890000000     0.034722   
C130     C      0.270380000000     0.722400000000     0.811130000000     0.0752213  
C131     C      0.307200000000     0.761220000000     0.812750000000     0.0743955  
C132     C      0.293740000000     0.775850000000     0.769420000000    -0.0803968  
C133     C      0.264260000000     0.791790000000     0.328480000000     0.0573927  
C134     C      0.216770000000     0.771730000000     0.304870000000     0.0715269  
C135     C      0.276620000000     0.778090000000     0.282700000000    -0.064433   
C136     C      0.300230000000     0.733320000000     0.200090000000    -0.08075    
C137     C      0.228790000000     0.757610000000     0.259740000000    -0.0756211  
C138     C      0.272020000000     0.747000000000     0.198810000000     0.0408883  
C139     C      0.258950000000     0.761040000000     0.247720000000     0.0341582  
C140     C      0.312620000000     0.721230000000     0.153350000000     0.0746701  
C141     C      0.269730000000     0.735400000000     0.104100000000     0.0737411  
C142     C      0.256670000000     0.747700000000     0.150090000000    -0.0803648  
C143     C      0.574120000000     0.715540000000     0.902480000000     0.0570662  
C144     C      0.572880000000     0.722420000000     0.996900000000     0.0728979  
C145     C      0.542850000000     0.714530000000     0.901780000000    -0.0675598  
C146     C      0.479900000000     0.691050000000     0.918560000000    -0.0802563  
C147     C      0.541850000000     0.722150000000     0.996800000000    -0.0760503  
C148     C      0.493530000000     0.713990000000     0.948980000000     0.0407071  
C149     C      0.526480000000     0.717190000000     0.949150000000     0.0350341  
C150     C      0.449060000000     0.687240000000     0.920580000000     0.0746518  
C151     C      0.444630000000     0.728700000000     0.981170000000     0.0741764  
C152     C      0.475480000000     0.733060000000     0.980290000000    -0.0805471  
C153     C      0.213830000000     0.267020000000     0.613690000000     0.0574613  
C154     C      0.211870000000     0.217840000000     0.654330000000     0.0719853  
C155     C      0.228060000000     0.278520000000     0.659480000000    -0.0645516  
C156     C      0.242090000000     0.300130000000     0.772300000000    -0.0797034  
C157     C      0.225840000000     0.228960000000     0.700090000000    -0.0756763  
C158     C      0.249940000000     0.271720000000     0.750680000000     0.0419887  
C159     C      0.234360000000     0.259540000000     0.702860000000     0.0352575  
C160     C      0.257580000000     0.311700000000     0.816230000000     0.0773597  
C161     C      0.288390000000     0.267710000000     0.818100000000     0.0771587  
C162     C      0.273240000000     0.255360000000     0.774390000000    -0.0787164  
C163     C      0.208510000000     0.265680000000     0.320270000000     0.0626181  
C164     C      0.240400000000     0.222180000000     0.318500000000     0.0756683  
C165     C      0.223100000000     0.277160000000     0.274770000000    -0.0648144  
C166     C      0.268470000000     0.304580000000     0.198800000000    -0.0805174  
C167     C      0.255330000000     0.233480000000     0.273820000000    -0.0748113  
C168     C      0.261930000000     0.273380000000     0.203000000000     0.0417334  
C169     C      0.246590000000     0.261120000000     0.251120000000     0.0364618  
C170     C      0.282160000000     0.315890000000     0.152750000000     0.0755119  
C171     C      0.283480000000     0.266180000000     0.114990000000     0.07479    
C172     C      0.269790000000     0.254090000000     0.160510000000    -0.0797591  
C173     C      0.439000000000     0.301510000000     0.943720000000     0.0586731  
C174     C      0.437710000000     0.335500000000     0.018050000000     0.074398   
C175     C      0.470300000000     0.302320000000     0.944660000000    -0.0664581  
C176     C      0.534430000000     0.322770000000     0.933650000000    -0.0784216  
C177     C      0.468680000000     0.336400000000     0.019800000000    -0.0749762  
C178     C      0.518560000000     0.322130000000     0.981980000000     0.0426726  
C179     C      0.485430000000     0.320170000000     0.982260000000     0.0364098  
C180     C      0.565390000000     0.325700000000     0.933960000000     0.0798941  
C181     C      0.565550000000     0.327360000000     0.028720000000     0.0787173  
C182     C      0.534610000000     0.324160000000     0.029900000000    -0.0790627  
C183     C      0.340790000000     0.446300000000     0.911400000000     0.057242   
C184     C      0.306250000000     0.446070000000     0.983810000000     0.0716352  
C185     C      0.341170000000     0.478400000000     0.912880000000    -0.0643796  
C186     C      0.325520000000     0.545830000000     0.905660000000    -0.0805758  
C187     C      0.306070000000     0.477880000000     0.985300000000    -0.0758815  
C188     C      0.324950000000     0.528380000000     0.952600000000     0.0408647  
C189     C      0.324020000000     0.494450000000     0.950220000000     0.034428   
C190     C      0.327270000000     0.577640000000     0.908660000000     0.0749025  
C191     C      0.327530000000     0.575480000000     0.003410000000     0.0741681  
C192     C      0.325770000000     0.543630000000     0.001880000000    -0.0802177  
Cd1      Cd     0.328810000000     0.333470000000     0.969750000000     0.51856    
Cd2      Cd     0.338180000000     0.689180000000     0.962750000000     0.511431   
Cd3      Cd     0.674300000000     0.343130000000     0.978770000000     0.514955   
Cd4      Cd     0.682010000000     0.700000000000     0.968530000000     0.52102    
Cd5      Cd     0.824140000000     0.193190000000     0.478220000000     0.521375   
Cd6      Cd     0.842810000000     0.837200000000     0.468860000000     0.515222   
Cd7      Cd     0.189220000000     0.838320000000     0.463690000000     0.517251   
Cd8      Cd     0.171380000000     0.193550000000     0.470370000000     0.52338    
H1       H      0.200680000000     0.938230000000     0.376290000000     0.0409922  
H2       H      0.214860000000     0.096230000000     0.523380000000     0.0407774  
H3       H      0.189630000000     0.996130000000     0.544580000000     0.0607049  
H4       H      0.220760000000     0.041480000000     0.524750000000     0.0597951  
H5       H      0.200280000000     0.993620000000     0.373100000000     0.0640588  
H6       H      0.163880000000     0.033650000000     0.387920000000     0.0623908  
H7       H      0.190530000000     0.940650000000     0.546390000000     0.0400704  
H8       H      0.127940000000     0.058510000000     0.321980000000     0.160293   
H9       H      0.094170000000     0.789320000000     0.511670000000     0.048131   
H10      H      0.939400000000     0.829410000000     0.383620000000     0.0406431  
H11      H      0.034490000000     0.860900000000     0.403560000000     0.059873   
H12      H      0.992790000000     0.828090000000     0.377710000000     0.0590359  
H13      H      0.040220000000     0.785540000000     0.514230000000     0.0656264  
H14      H      0.998450000000     0.815130000000     0.547310000000     0.0639553  
H15      H      0.088420000000     0.863720000000     0.401320000000     0.0380952  
H16      H      0.972620000000     0.816290000000     0.638330000000     0.160272   
H17      H      0.788320000000     0.933100000000     0.501910000000     0.0405193  
H18      H      0.838980000000     0.093940000000     0.397220000000     0.0451786  
H19      H      0.869850000000     0.997830000000     0.433440000000     0.0603183  
H20      H      0.841940000000     0.039230000000     0.392460000000     0.0608882  
H21      H      0.782380000000     0.988200000000     0.503260000000     0.0651868  
H22      H      0.802260000000     0.032260000000     0.548070000000     0.0636143  
H23      H      0.874750000000     0.942660000000     0.431630000000     0.0382485  
H24      H      0.787590000000     0.058750000000     0.635220000000     0.159623   
H25      H      0.920240000000     0.232700000000     0.413140000000     0.0396275  
H26      H      0.074560000000     0.206910000000     0.555120000000     0.0422932  
H27      H      0.978280000000     0.176760000000     0.548840000000     0.0606738  
H28      H      0.021200000000     0.209360000000     0.561100000000     0.0600503  
H29      H      0.974140000000     0.235710000000     0.410720000000     0.0608186  
H30      H      0.014860000000     0.202800000000     0.390520000000     0.0660975  
H31      H      0.924300000000     0.175000000000     0.550940000000     0.0398685  
H32      H      0.042360000000     0.226400000000     0.308730000000     0.158666   
H33      H      0.798480000000     0.751290000000     0.569000000000     0.0408517  
H34      H      0.706860000000     0.773550000000     0.831230000000     0.0492232  
H35      H      0.783050000000     0.812710000000     0.732300000000     0.0631469  
H36      H      0.732820000000     0.795040000000     0.756160000000     0.0627204  
H37      H      0.773440000000     0.728200000000     0.645100000000     0.0651162  
H38      H      0.782160000000     0.711930000000     0.736950000000     0.0645611  
H39      H      0.807630000000     0.835190000000     0.655290000000     0.0419103  
H40      H      0.800060000000     0.662260000000     0.780130000000     0.160106   
H41      H      0.765620000000     0.838260000000     0.329290000000     0.0394431  
H42      H      0.727780000000     0.699200000000     0.144390000000     0.0408153  
H43      H      0.799950000000     0.741870000000     0.247360000000     0.0606198  
H44      H      0.752560000000     0.719090000000     0.221950000000     0.0595299  
H45      H      0.739250000000     0.818270000000     0.252270000000     0.0637625  
H46      H      0.746480000000     0.809700000000     0.158080000000     0.0634669  
H47      H      0.825410000000     0.762210000000     0.325150000000     0.0396858  
H48      H      0.741320000000     0.841990000000     0.073300000000     0.159122   
H49      H      0.694070000000     0.259490000000     0.851840000000     0.0402972  
H50      H      0.819870000000     0.257950000000     0.635650000000     0.0409024  
H51      H      0.763250000000     0.320690000000     0.741960000000     0.0606529  
H52      H      0.798800000000     0.280680000000     0.714740000000     0.0596577  
H53      H      0.716050000000     0.236630000000     0.772590000000     0.0652179  
H54      H      0.713380000000     0.243370000000     0.675130000000     0.0670792  
H55      H      0.741110000000     0.342750000000     0.821830000000     0.0392546  
H56      H      0.684470000000     0.244240000000     0.582700000000     0.159055   
H57      H      0.676350000000     0.276080000000     0.136260000000     0.0403619  
H58      H      0.802390000000     0.274520000000     0.352290000000     0.0413146  
H59      H      0.780860000000     0.300140000000     0.179960000000     0.0598211  
H60      H      0.779500000000     0.299120000000     0.277010000000     0.0595382  
H61      H      0.699020000000     0.252040000000     0.213440000000     0.0645013  
H62      H      0.737030000000     0.215000000000     0.233720000000     0.0657691  
H63      H      0.757230000000     0.324290000000     0.103660000000     0.0384817  
H64      H      0.754920000000     0.158150000000     0.228340000000     0.158193   
H65      H      0.635040000000     0.600840000000     0.000860000000     0.04036    
H66      H      0.715310000000     0.443020000000     0.025270000000     0.0402321  
H67      H      0.726040000000     0.541490000000     0.962430000000     0.0626701  
H68      H      0.718460000000     0.498080000000     0.026240000000     0.0596381  
H69      H      0.632820000000     0.545580000000     0.003860000000     0.0641748  
H70      H      0.636200000000     0.503670000000     0.940090000000     0.0638374  
H71      H      0.727570000000     0.597080000000     0.960270000000     0.0455361  
H72      H      0.594840000000     0.476900000000     0.888120000000     0.1607     
H73      H      0.260720000000     0.701420000000     0.826340000000     0.0398142  
H74      H      0.270610000000     0.812860000000     0.583160000000     0.047584   
H75      H      0.303280000000     0.796920000000     0.754530000000     0.0604551  
H76      H      0.294450000000     0.790160000000     0.659440000000     0.0613266  
H77      H      0.236790000000     0.725760000000     0.750780000000     0.0637441  
H78      H      0.209070000000     0.771320000000     0.729140000000     0.0652587  
H79      H      0.327060000000     0.771550000000     0.829510000000     0.0382111  
H80      H      0.162010000000     0.807590000000     0.739730000000     0.157555   
H81      H      0.334560000000     0.711000000000     0.156020000000     0.0392921  
H82      H      0.193070000000     0.768780000000     0.311540000000     0.0401973  
H83      H      0.234940000000     0.758300000000     0.147130000000     0.0599588  
H84      H      0.214390000000     0.744080000000     0.234340000000     0.0590776  
H85      H      0.312690000000     0.731810000000     0.237040000000     0.0632244  
H86      H      0.300080000000     0.780850000000     0.273970000000     0.0621298  
H87      H      0.257260000000     0.736720000000     0.067090000000     0.0380023  
H88      H      0.331780000000     0.815990000000     0.332060000000     0.159385   
H89      H      0.439460000000     0.668950000000     0.896950000000     0.0392631  
H90      H      0.583640000000     0.725040000000     0.035430000000     0.0428355  
H91      H      0.485080000000     0.751290000000     0.003940000000     0.0609728  
H92      H      0.530040000000     0.724490000000     0.034400000000     0.0603115  
H93      H      0.493030000000     0.675570000000     0.894270000000     0.0635839  
H94      H      0.531150000000     0.711970000000     0.864210000000     0.0663093  
H95      H      0.431440000000     0.743810000000     0.006120000000     0.0388207  
H96      H      0.563600000000     0.747000000000     0.795580000000     0.158635   
H97      H      0.250860000000     0.333810000000     0.831690000000     0.041679   
H98      H      0.206140000000     0.193770000000     0.654240000000     0.0410121  
H99      H      0.280170000000     0.233430000000     0.758580000000     0.0631137  
H100     H      0.229910000000     0.213600000000     0.733230000000     0.0599804  
H101     H      0.223960000000     0.313340000000     0.755560000000     0.0648098  
H102     H      0.234650000000     0.302280000000     0.661280000000     0.0649508  
H103     H      0.306500000000     0.254490000000     0.834990000000     0.045489   
H104     H      0.232060000000     0.334630000000     0.576260000000     0.16229    
H105     H      0.286760000000     0.340190000000     0.151040000000     0.0398915  
H106     H      0.247950000000     0.200350000000     0.333860000000     0.0439421  
H107     H      0.264890000000     0.229880000000     0.161890000000     0.0624899  
H108     H      0.273770000000     0.220570000000     0.257310000000     0.0614091  
H109     H      0.263220000000     0.320220000000     0.231060000000     0.0644888  
H110     H      0.216090000000     0.298600000000     0.257370000000     0.0641145  
H111     H      0.288980000000     0.250570000000     0.082760000000     0.0401453  
H112     H      0.168340000000     0.323880000000     0.290900000000     0.160872   
H113     H      0.576740000000     0.326440000000     0.895660000000     0.0438802  
H114     H      0.425930000000     0.349360000000     0.047220000000     0.0414084  
H115     H      0.523420000000     0.323200000000     0.068270000000     0.0609238  
H116     H      0.479330000000     0.350670000000     0.049540000000     0.0612993  
H117     H      0.523020000000     0.321740000000     0.895580000000     0.0665061  
H118     H      0.482930000000     0.288640000000     0.916580000000     0.0664949  
H119     H      0.577090000000     0.329080000000     0.066660000000     0.0405559  
H120     H      0.451880000000     0.236350000000     0.906080000000     0.158234   
H121     H      0.327780000000     0.590280000000     0.871380000000     0.0399442  
H122     H      0.292300000000     0.434480000000     0.012880000000     0.0416187  
H123     H      0.325660000000     0.531030000000     0.039150000000     0.0603379  
H124     H      0.291930000000     0.489410000000     0.014080000000     0.0595917  
H125     H      0.324470000000     0.535020000000     0.866720000000     0.0637739  
H126     H      0.355080000000     0.491000000000     0.885230000000     0.0625851  
H127     H      0.328440000000     0.586400000000     0.042320000000     0.0381207  
H128     H      0.391020000000     0.462190000000     0.824150000000     0.160254   
N1       N      0.185790000000     0.097290000000     0.455080000000    -0.168985   
N2       N      0.195310000000     0.935460000000     0.461460000000    -0.177682   
N3       N      0.937140000000     0.823280000000     0.469000000000    -0.168951   
N4       N      0.095170000000     0.826910000000     0.456640000000    -0.176365   
N5       N      0.818880000000     0.095700000000     0.475480000000    -0.167575   
N6       N      0.831970000000     0.933910000000     0.466840000000    -0.178037   
N7       N      0.076520000000     0.203710000000     0.469200000000    -0.167965   
N8       N      0.918410000000     0.203400000000     0.481840000000    -0.177804   
N9       N      0.728950000000     0.729880000000     0.828850000000    -0.166903   
N10      N      0.804640000000     0.794950000000     0.606500000000    -0.177177   
N11      N      0.722150000000     0.742600000000     0.105100000000    -0.169213   
N12      N      0.797390000000     0.801690000000     0.332760000000    -0.178017   
N13      N      0.779260000000     0.236800000000     0.608810000000    -0.16881    
N14      N      0.715920000000     0.302780000000     0.842430000000    -0.178418   
N15      N      0.783020000000     0.230210000000     0.338300000000    -0.168264   
N16      N      0.715160000000     0.301860000000     0.114350000000    -0.177706   
N17      N      0.673910000000     0.440880000000     0.982290000000    -0.169688   
N18      N      0.681400000000     0.602940000000     0.980000000000    -0.176367   
N19      N      0.225730000000     0.804930000000     0.610270000000    -0.167993   
N20      N      0.295630000000     0.734680000000     0.833300000000    -0.178281   
N21      N      0.233880000000     0.789460000000     0.338330000000    -0.169399   
N22      N      0.297590000000     0.722520000000     0.105680000000    -0.178137   
N23      N      0.589090000000     0.717680000000     0.950860000000    -0.168984   
N24      N      0.431610000000     0.705750000000     0.952000000000    -0.178366   
N25      N      0.206420000000     0.236210000000     0.610730000000    -0.168434   
N26      N      0.280690000000     0.295710000000     0.838640000000    -0.176344   
N27      N      0.216780000000     0.237520000000     0.341250000000    -0.167802   
N28      N      0.289430000000     0.296860000000     0.111080000000    -0.178073   
N29      N      0.422770000000     0.319280000000     0.979350000000    -0.169221   
N30      N      0.580760000000     0.328330000000     0.981100000000    -0.176355   
N31      N      0.324030000000     0.430130000000     0.948610000000    -0.168699   
N32      N      0.328500000000     0.592300000000     0.957150000000    -0.178297   
O1       O      0.307740000000     0.336700000000     0.060550000000    -0.24205    
O2       O      0.289310000000     0.333300000000     0.901450000000    -0.242943   
O3       O      0.377330000000     0.315300000000     0.936100000000    -0.219464   
O4       O      0.307380000000     0.384530000000     0.984640000000    -0.238311   
O5       O      0.344170000000     0.382400000000     0.930360000000    -0.22643    
O6       O      0.377630000000     0.335030000000     0.014280000000    -0.246049   
O7       O      0.309270000000     0.291750000000     0.026360000000    -0.245571   
O8       O      0.318040000000     0.294070000000     0.901820000000    -0.230114   
O9       O      0.336310000000     0.699810000000     0.059640000000    -0.241999   
O10      O      0.332850000000     0.730650000000     0.896470000000    -0.247766   
O11      O      0.332670000000     0.637870000000     0.003110000000    -0.247359   
O12      O      0.388980000000     0.679300000000     0.929880000000    -0.248187   
O13      O      0.384550000000     0.717470000000     0.983230000000    -0.243719   
O14      O      0.332510000000     0.639610000000     0.917320000000    -0.242181   
O15      O      0.297370000000     0.712430000000     0.015080000000    -0.247946   
O16      O      0.299110000000     0.695830000000     0.895180000000    -0.242466   
O17      O      0.684930000000     0.301000000000     0.916020000000    -0.246913   
O18      O      0.715860000000     0.334180000000     0.041420000000    -0.244094   
O19      O      0.625840000000     0.332540000000     0.937370000000    -0.236027   
O20      O      0.657980000000     0.394000000000     0.950450000000    -0.2291     
O21      O      0.691740000000     0.393930000000     0.010370000000    -0.24219    
O22      O      0.625710000000     0.336820000000     0.023120000000    -0.237149   
O23      O      0.707920000000     0.343020000000     0.900360000000    -0.246639   
O24      O      0.675550000000     0.309340000000     0.057300000000    -0.241634   
O25      O      0.705460000000     0.648790000000     0.964730000000    -0.228448   
O26      O      0.632920000000     0.718330000000     0.999380000000    -0.238996   
O27      O      0.719800000000     0.695170000000     0.897230000000    -0.221525   
O28      O      0.703600000000     0.700690000000     0.059530000000    -0.24715    
O29      O      0.701710000000     0.743630000000     0.019860000000    -0.227391   
O30      O      0.692950000000     0.735330000000     0.894470000000    -0.228863   
O31      O      0.659040000000     0.650200000000     0.985720000000    -0.243702   
O32      O      0.635190000000     0.702620000000     0.918440000000    -0.223559   
O33      O      0.813380000000     0.142810000000     0.517280000000    -0.22025    
O34      O      0.872190000000     0.213000000000     0.445450000000    -0.242344   
O35      O      0.781390000000     0.202640000000     0.537880000000    -0.218857   
O36      O      0.790190000000     0.191990000000     0.401310000000    -0.219938   
O37      O      0.815020000000     0.233190000000     0.410600000000    -0.240679   
O38      O      0.820220000000     0.229080000000     0.554170000000    -0.245228   
O39      O      0.828460000000     0.142550000000     0.436200000000    -0.235123   
O40      O      0.874100000000     0.185390000000     0.516350000000    -0.244162   
O41      O      0.891530000000     0.829160000000     0.511840000000    -0.228171   
O42      O      0.858560000000     0.889950000000     0.449070000000    -0.246884   
O43      O      0.821190000000     0.793880000000     0.519060000000    -0.243598   
O44      O      0.834050000000     0.799480000000     0.397170000000    -0.241003   
O45      O      0.804340000000     0.837910000000     0.398630000000    -0.247582   
O46      O      0.826020000000     0.835830000000     0.562730000000    -0.238043   
O47      O      0.891800000000     0.829330000000     0.426480000000    -0.241831   
O48      O      0.815400000000     0.885140000000     0.485290000000    -0.240344   
O49      O      0.138910000000     0.850420000000     0.430950000000    -0.245458   
O50      O      0.190530000000     0.889410000000     0.505560000000    -0.24375    
O51      O      0.192820000000     0.799280000000     0.391800000000    -0.246817   
O52      O      0.186780000000     0.813010000000     0.551210000000    -0.221047   
O53      O      0.229780000000     0.829280000000     0.528450000000    -0.234358   
O54      O      0.231770000000     0.825980000000     0.405390000000    -0.226612   
O55      O      0.141900000000     0.812660000000     0.485640000000    -0.227403   
O56      O      0.195810000000     0.888320000000     0.420190000000    -0.240622   
O57      O      0.196940000000     0.144710000000     0.491030000000    -0.240679   
O58      O      0.121930000000     0.200720000000     0.512750000000    -0.242063   
O59      O      0.212210000000     0.199520000000     0.405070000000    -0.240194   
O60      O      0.185400000000     0.195200000000     0.565960000000    -0.239857   
O61      O      0.192870000000     0.236040000000     0.521240000000    -0.224115   
O62      O      0.177800000000     0.233130000000     0.401800000000    -0.214511   
O63      O      0.161590000000     0.142470000000     0.434250000000    -0.225116   
O64      O      0.122490000000     0.198260000000     0.427660000000    -0.215348   
O65      O      0.172190000000     0.122830000000     0.332480000000    -0.130425   
O66      O      0.147400000000     0.067910000000     0.313160000000    -0.261133   
O67      O      0.119790000000     0.107900000000     0.379930000000    -0.138575   
O68      O      0.913080000000     0.782550000000     0.573260000000    -0.136595   
O69      O      0.964750000000     0.797590000000     0.621080000000    -0.261231   
O70      O      0.922790000000     0.841130000000     0.604080000000    -0.148404   
O71      O      0.761780000000     0.116730000000     0.553200000000    -0.115664   
O72      O      0.772260000000     0.065330000000     0.609240000000    -0.258433   
O73      O      0.812010000000     0.111980000000     0.612720000000    -0.145727   
O74      O      0.092320000000     0.169330000000     0.347420000000    -0.117679   
O75      O      0.047360000000     0.204380000000     0.310730000000    -0.258814   
O76      O      0.097590000000     0.231070000000     0.347310000000    -0.130258   
O77      O      0.725930000000     0.653570000000     0.816480000000    -0.13154    
O78      O      0.779470000000     0.657920000000     0.768230000000    -0.261662   
O79      O      0.774390000000     0.670240000000     0.874170000000    -0.146311   
O80      O      0.678110000000     0.797740000000     0.053290000000    -0.132553   
O81      O      0.720710000000     0.837160000000     0.084700000000    -0.26155    
O82      O      0.732240000000     0.796920000000     0.004870000000    -0.147826   
O83      O      0.728500000000     0.178120000000     0.575710000000    -0.115486   
O84      O      0.688140000000     0.222830000000     0.593690000000    -0.256922   
O85      O      0.728100000000     0.228880000000     0.513520000000    -0.143007   
O86      O      0.738290000000     0.166410000000     0.364470000000    -0.123295   
O87      O      0.739780000000     0.159950000000     0.257040000000    -0.259469   
O88      O      0.790650000000     0.154980000000     0.313900000000    -0.145474   
O89      O      0.603610000000     0.417700000000     0.978350000000    -0.140802   
O90      O      0.591850000000     0.469870000000     0.925390000000    -0.263207   
O91      O      0.623610000000     0.424910000000     0.876740000000    -0.147282   
O92      O      0.153080000000     0.773860000000     0.613400000000    -0.13399    
O93      O      0.156700000000     0.789530000000     0.717830000000    -0.261764   
O94      O      0.159200000000     0.833330000000     0.641920000000    -0.147972   
O95      O      0.283550000000     0.797600000000     0.435140000000    -0.137046   
O96      O      0.325080000000     0.800000000000     0.357380000000    -0.262959   
O97      O      0.286390000000     0.847160000000     0.370270000000    -0.147644   
O98      O      0.606700000000     0.682190000000     0.825980000000    -0.132593   
O99      O      0.567910000000     0.724990000000     0.790510000000    -0.25998    
O100     O      0.618940000000     0.742420000000     0.838720000000    -0.143284   
O101     O      0.169750000000     0.291510000000     0.545970000000    -0.125385   
O102     O      0.211030000000     0.330040000000     0.585250000000    -0.259311   
O103     O      0.226750000000     0.288310000000     0.510000000000    -0.13913    
O104     O      0.187490000000     0.294130000000     0.414260000000    -0.115394   
O105     O      0.182150000000     0.324950000000     0.321670000000    -0.259338   
O106     O      0.147430000000     0.275350000000     0.340270000000    -0.132331   
O107     O      0.408240000000     0.293720000000     0.846790000000    -0.127667   
O108     O      0.447920000000     0.250180000000     0.875560000000    -0.25911    
O109     O      0.395840000000     0.255420000000     0.929070000000    -0.14563    
O110     O      0.339620000000     0.403340000000     0.827510000000    -0.132766   
O111     O      0.371170000000     0.454970000000     0.812420000000    -0.260898   
O112     O      0.391250000000     0.411860000000     0.881610000000    -0.146204   
S1       S      0.152680000000     0.094860000000     0.360230000000     0.278254   
S2       S      0.938330000000     0.809980000000     0.578650000000     0.27677    
S3       S      0.788470000000     0.093350000000     0.573480000000     0.277181   
S4       S      0.074510000000     0.202040000000     0.356830000000     0.275801   
S5       S      0.757410000000     0.673310000000     0.815610000000     0.27741    
S6       S      0.714460000000     0.801430000000     0.062510000000     0.277111   
S7       S      0.723470000000     0.215600000000     0.575050000000     0.277077   
S8       S      0.758470000000     0.173440000000     0.310310000000     0.276463   
S9       S      0.617490000000     0.442330000000     0.934600000000     0.276527   
S10      S      0.169100000000     0.797750000000     0.655950000000     0.276275   
S11      S      0.289830000000     0.809490000000     0.373230000000     0.276755   
S12      S      0.592290000000     0.716210000000     0.839140000000     0.276274   
S13      S      0.205290000000     0.294230000000     0.563010000000     0.279886   
S14      S      0.181060000000     0.289950000000     0.349470000000     0.276468   
S15      S      0.422400000000     0.275130000000     0.898500000000     0.276224   
S16      S      0.360940000000     0.428780000000     0.858160000000     0.277522   


