data_structure

_audit_creation_method RASPA-1.0
_audit_creation_date 2023-6-5
_audit_author_name 'Poobodin Mano'

_cell_length_a    44.3178
_cell_length_b    44.9915
_cell_length_c    24.7169
_cell_angle_alpha 90.0426
_cell_angle_beta  89.8764
_cell_angle_gamma 90.0001
_cell_volume      49283.5

_symmetry_cell_setting          triclinic
_symmetry_space_group_name_Hall 'P 1'
_symmetry_space_group_name_H-M  'P 1'
_symmetry_Int_Tables_number     1

_symmetry_equiv_pos_as_xyz 'x,y,z'

loop_
_atom_site_label
_atom_site_type_symbol
_atom_site_fract_x
_atom_site_fract_y
_atom_site_fract_z
_atom_site_charge
C1       C      0.396400000000     0.323310000000     0.951440000000     0.347384   
C2       C      0.301940000000     0.309510000000     0.054310000000     0.347975   
C3       C      0.323740000000     0.397150000000     0.966250000000     0.347294   
C4       C      0.304150000000     0.306100000000     0.865670000000     0.347428   
C5       C      0.306680000000     0.707690000000     0.053430000000     0.347502   
C6       C      0.329480000000     0.615820000000     0.962650000000     0.346707   
C7       C      0.308990000000     0.709390000000     0.871720000000     0.346967   
C8       C      0.401620000000     0.686560000000     0.964250000000     0.346163   
C9       C      0.711200000000     0.293520000000     0.880580000000     0.347684   
C10      C      0.617880000000     0.317280000000     0.967670000000     0.345501   
C11      C      0.707640000000     0.292090000000     0.063410000000     0.345505   
C12      C      0.691540000000     0.387390000000     0.977580000000     0.348829   
C13      C      0.694970000000     0.606180000000     0.983910000000     0.345362   
C14      C      0.717820000000     0.699990000000     0.893550000000     0.347496   
C15      C      0.623270000000     0.680830000000     0.967410000000     0.349451   
C16      C      0.715420000000     0.694570000000     0.078470000000     0.347294   
C17      C      0.824660000000     0.104610000000     0.483920000000     0.348573   
C18      C      0.805940000000     0.195490000000     0.566750000000     0.3471     
C19      C      0.895800000000     0.178070000000     0.457820000000     0.347308   
C20      C      0.802470000000     0.195900000000     0.378450000000     0.347092   
C21      C      0.810490000000     0.799900000000     0.579780000000     0.345241   
C22      C      0.902410000000     0.815010000000     0.468550000000     0.346951   
C23      C      0.812420000000     0.792230000000     0.389800000000     0.345595   
C24      C      0.827130000000     0.886180000000     0.493450000000     0.346379   
C25      C      0.215280000000     0.807520000000     0.368620000000     0.347497   
C26      C      0.124040000000     0.826940000000     0.466350000000     0.346818   
C27      C      0.216650000000     0.809090000000     0.558230000000     0.349033   
C28      C      0.199690000000     0.898470000000     0.463270000000     0.349104   
C29      C      0.205540000000     0.211300000000     0.365600000000     0.346786   
C30      C      0.193470000000     0.116630000000     0.469230000000     0.347133   
C31      C      0.210640000000     0.206450000000     0.552510000000     0.34453    
C32      C      0.117540000000     0.185200000000     0.451650000000     0.344778   
C33      C      0.210340000000     0.945460000000     0.417980000000     0.1529     
C34      C      0.198890000000     0.943520000000     0.512100000000     0.073102   
C35      C      0.210700000000     0.976730000000     0.420730000000    -0.12244    
C36      C      0.223500000000     0.042170000000     0.442940000000    -0.0786124  
C37      C      0.199480000000     0.974390000000     0.515610000000    -0.0929533  
C38      C      0.203080000000     0.024410000000     0.471790000000     0.0282211  
C39      C      0.204800000000     0.991430000000     0.469480000000     0.0522846  
C40      C      0.220380000000     0.073080000000     0.443450000000     0.0684791  
C41      C      0.177780000000     0.069330000000     0.501250000000     0.0687422  
C42      C      0.180250000000     0.038420000000     0.501670000000    -0.078675   
C43      C      0.217540000000     0.931540000000     0.363660000000    -0.225159   
C44      C      0.950180000000     0.790600000000     0.489030000000     0.152991   
C45      C      0.948300000000     0.834990000000     0.436730000000     0.0731907  
C46      C      0.981960000000     0.791960000000     0.488370000000    -0.122359   
C47      C      0.048970000000     0.793070000000     0.457320000000    -0.0787973  
C48      C      0.979650000000     0.836520000000     0.435300000000    -0.0925583  
C49      C      0.030310000000     0.817960000000     0.464020000000     0.0282698  
C50      C      0.996890000000     0.815280000000     0.462250000000     0.0520774  
C51      C      0.080350000000     0.796380000000     0.458540000000     0.0682131  
C52      C      0.075180000000     0.848180000000     0.473740000000     0.0685683  
C53      C      0.043830000000     0.845700000000     0.472590000000    -0.0789922  
C54      C      0.935990000000     0.764240000000     0.517360000000    -0.225354   
C55      C      0.821660000000     0.059930000000     0.539530000000     0.15234    
C56      C      0.820170000000     0.057350000000     0.443310000000     0.073338   
C57      C      0.820700000000     0.028650000000     0.541890000000    -0.122327   
C58      C      0.839240000000     0.963730000000     0.532510000000    -0.0786184  
C59      C      0.818950000000     0.026430000000     0.445000000000    -0.0921519  
C60      C      0.819990000000     0.978640000000     0.496760000000     0.0282144  
C61      C      0.819580000000     0.011670000000     0.494580000000     0.0521784  
C62      C      0.840810000000     0.932730000000     0.531740000000     0.0683643  
C63      C      0.804050000000     0.930710000000     0.462280000000     0.0686895  
C64      C      0.801970000000     0.961700000000     0.461870000000    -0.0785782  
C65      C      0.822240000000     0.076370000000     0.593010000000    -0.224306   
C66      C      0.941380000000     0.207130000000     0.473280000000     0.151763   
C67      C      0.943210000000     0.160180000000     0.428760000000     0.0722555  
C68      C      0.973080000000     0.208760000000     0.470770000000    -0.122763   
C69      C      0.039120000000     0.196350000000     0.493400000000    -0.0788128  
C70      C      0.974570000000     0.161600000000     0.425520000000    -0.0923069  
C71      C      0.023440000000     0.186820000000     0.447400000000     0.0280134  
C72      C      0.989920000000     0.185830000000     0.447430000000     0.0518035  
C73      C      0.070600000000     0.196080000000     0.493770000000     0.0682454  
C74      C      0.071610000000     0.177710000000     0.403830000000     0.0682078  
C75      C      0.040090000000     0.177610000000     0.402120000000    -0.0787187  
C76      C      0.925140000000     0.233400000000     0.498350000000    -0.223526   
C77      C      0.758110000000     0.703070000000     0.826470000000     0.152564   
C78      C      0.719680000000     0.739990000000     0.831810000000     0.0721705  
C79      C      0.771070000000     0.718360000000     0.782500000000    -0.122569   
C80      C      0.803260000000     0.762880000000     0.710930000000    -0.0791958  
C81      C      0.732300000000     0.755400000000     0.788390000000    -0.0925325  
C82      C      0.771860000000     0.760480000000     0.716180000000     0.0278836  
C83      C      0.758250000000     0.744650000000     0.763100000000     0.0517944  
C84      C      0.815760000000     0.776550000000     0.665430000000     0.0679906  
C85      C      0.766960000000     0.786270000000     0.630550000000     0.0679239  
C86      C      0.753680000000     0.772700000000     0.675550000000    -0.0786753  
C87      C      0.773800000000     0.674830000000     0.844400000000    -0.22484    
C88      C      0.717440000000     0.702940000000     0.175890000000     0.152847   
C89      C      0.754510000000     0.723300000000     0.116630000000     0.0726211  
C90      C      0.731860000000     0.716780000000     0.219970000000    -0.122629   
C91      C      0.776840000000     0.734260000000     0.307690000000    -0.0790335  
C92      C      0.769010000000     0.737130000000     0.159810000000    -0.0928046  
C93      C      0.772610000000     0.749120000000     0.258500000000     0.0278856  
C94      C      0.757680000000     0.734090000000     0.212160000000     0.0520743  
C95      C      0.790520000000     0.748920000000     0.351040000000     0.0676954  
C96      C      0.795910000000     0.792620000000     0.298330000000     0.0681366  
C97      C      0.782500000000     0.778580000000     0.254070000000    -0.0786405  
C98      C      0.689880000000     0.684270000000     0.188550000000    -0.225488   
C99      C      0.811500000000     0.219930000000     0.654200000000     0.15094    
C100     C      0.763040000000     0.211290000000     0.615680000000     0.0716989  
C101     C      0.797610000000     0.233690000000     0.698950000000    -0.122649   
C102     C      0.763460000000     0.277870000000     0.769310000000    -0.0792806  
C103     C      0.748960000000     0.224720000000     0.659860000000    -0.0926774  
C104     C      0.751710000000     0.251250000000     0.748820000000     0.027943   
C105     C      0.766250000000     0.236270000000     0.701970000000     0.0514572  
C106     C      0.749580000000     0.291720000000     0.813370000000     0.0681626  
C107     C      0.712840000000     0.253470000000     0.817740000000     0.0682144  
C108     C      0.726050000000     0.239110000000     0.773490000000    -0.0791766  
C109     C      0.845660000000     0.218450000000     0.654610000000    -0.222939   
C110     C      0.701800000000     0.264160000000     0.147290000000     0.150839   
C111     C      0.750370000000     0.276990000000     0.113070000000     0.0717214  
C112     C      0.715590000000     0.250330000000     0.191970000000    -0.122115   
C113     C      0.750410000000     0.208900000000     0.266070000000    -0.0788353  
C114     C      0.764330000000     0.263320000000     0.156920000000    -0.0925808  
C115     C      0.761570000000     0.235600000000     0.244730000000     0.0279151  
C116     C      0.746990000000     0.249860000000     0.197180000000     0.0513076  
C117     C      0.764310000000     0.195950000000     0.310930000000     0.068053   
C118     C      0.800150000000     0.235040000000     0.314070000000     0.0678861  
C119     C      0.786750000000     0.248630000000     0.269400000000    -0.0792113  
C120     C      0.667620000000     0.263690000000     0.145620000000    -0.222936   
C121     C      0.707840000000     0.432380000000     0.024240000000     0.151567   
C122     C      0.684510000000     0.434450000000     0.937610000000     0.0722093  
C123     C      0.709260000000     0.463670000000     0.025040000000    -0.122283   
C124     C      0.691920000000     0.529040000000     0.030710000000    -0.0792716  
C125     C      0.685870000000     0.465370000000     0.937700000000    -0.092468   
C126     C      0.698780000000     0.513480000000     0.983110000000     0.0275426  
C127     C      0.698120000000     0.480410000000     0.981850000000     0.0512804  
C128     C      0.691280000000     0.560090000000     0.030520000000     0.0667938  
C129     C      0.704610000000     0.560840000000     0.937580000000     0.066978   
C130     C      0.705500000000     0.529810000000     0.936350000000    -0.0795492  
C131     C      0.721040000000     0.416210000000     0.072420000000    -0.224264   
C132     C      0.259150000000     0.803830000000     0.619890000000     0.153511   
C133     C      0.214270000000     0.775310000000     0.631130000000     0.0728724  
C134     C      0.271780000000     0.789420000000     0.664990000000    -0.122749   
C135     C      0.286510000000     0.768350000000     0.778250000000    -0.0790057  
C136     C      0.226440000000     0.760940000000     0.676000000000    -0.0924481  
C137     C      0.269050000000     0.752560000000     0.740780000000     0.0279313  
C138     C      0.255520000000     0.767850000000     0.693380000000     0.0522468  
C139     C      0.299660000000     0.753560000000     0.821850000000     0.0679728  
C140     C      0.278460000000     0.707880000000     0.792770000000     0.0679673  
C141     C      0.265020000000     0.721970000000     0.748630000000    -0.0788428  
C142     C      0.278610000000     0.826960000000     0.592110000000    -0.225296   
C143     C      0.261870000000     0.718280000000     0.107580000000     0.152857   
C144     C      0.309790000000     0.738840000000     0.130030000000     0.0729925  
C145     C      0.249070000000     0.732990000000     0.152390000000    -0.122636   
C146     C      0.225130000000     0.779820000000     0.230380000000    -0.0791747  
C147     C      0.297450000000     0.753490000000     0.174530000000    -0.0925459  
C148     C      0.253380000000     0.765960000000     0.233850000000     0.0279024  
C149     C      0.266800000000     0.750690000000     0.186210000000     0.0520648  
C150     C      0.212760000000     0.793790000000     0.275790000000     0.0676598  
C151     C      0.255600000000     0.780750000000     0.327980000000     0.0677391  
C152     C      0.268640000000     0.766640000000     0.283390000000    -0.079316   
C153     C      0.240800000000     0.699520000000     0.073520000000    -0.225082   
C154     C      0.576050000000     0.673290000000     0.919260000000     0.153033   
C155     C      0.577560000000     0.699530000000     0.002950000000     0.0728617  
C156     C      0.544370000000     0.675390000000     0.919440000000    -0.122905   
C157     C      0.479180000000     0.696630000000     0.916400000000    -0.078889   
C158     C      0.546200000000     0.701950000000     0.003580000000    -0.0927603  
C159     C      0.495700000000     0.690390000000     0.963290000000     0.0279763  
C160     C      0.529200000000     0.689450000000     0.961970000000     0.0521426  
C161     C      0.447680000000     0.695830000000     0.917720000000     0.0682079  
C162     C      0.448400000000     0.683230000000     0.010850000000     0.0683596  
C163     C      0.479920000000     0.684020000000     0.011050000000    -0.0787014  
C164     C      0.590520000000     0.658660000000     0.870470000000    -0.224811   
C165     C      0.269610000000     0.307600000000     0.789180000000     0.15322    
C166     C      0.299300000000     0.264670000000     0.807630000000     0.0729469  
C167     C      0.256500000000     0.292720000000     0.744980000000    -0.122603   
C168     C      0.219740000000     0.251580000000     0.674550000000    -0.0786626  
C169     C      0.286530000000     0.249650000000     0.763950000000    -0.0921745  
C170     C      0.250500000000     0.247840000000     0.685700000000     0.0280178  
C171     C      0.264720000000     0.263550000000     0.732170000000     0.0521952  
C172     C      0.206820000000     0.237460000000     0.630000000000     0.0683073  
C173     C      0.253750000000     0.215320000000     0.607560000000     0.0680941  
C174     C      0.267480000000     0.229270000000     0.651700000000    -0.0783717  
C175     C      0.259750000000     0.339430000000     0.798740000000    -0.225343   
C176     C      0.297970000000     0.302710000000     0.151800000000     0.15196    
C177     C      0.262720000000     0.280440000000     0.091470000000     0.0724567  
C178     C      0.283340000000     0.288830000000     0.195620000000    -0.122747   
C179     C      0.238010000000     0.270400000000     0.282060000000    -0.0790691  
C180     C      0.247930000000     0.266620000000     0.134450000000    -0.0926842  
C181     C      0.243370000000     0.255340000000     0.233350000000     0.0280284  
C182     C      0.258310000000     0.270550000000     0.187180000000     0.0519371  
C183     C      0.224910000000     0.255440000000     0.325670000000     0.0680586  
C184     C      0.222040000000     0.211100000000     0.274010000000     0.0686272  
C185     C      0.234930000000     0.225420000000     0.229500000000    -0.0787188  
C186     C      0.324280000000     0.322900000000     0.165220000000    -0.223884   
C187     C      0.569200000000     0.309850000000     0.011540000000     0.151424   
C188     C      0.572980000000     0.318150000000     0.916570000000     0.0724972  
C189     C      0.537540000000     0.309710000000     0.007170000000    -0.122391   
C190     C      0.471980000000     0.295210000000     0.981960000000    -0.0794396  
C191     C      0.541670000000     0.317880000000     0.911540000000    -0.0924834  
C192     C      0.490130000000     0.315160000000     0.953030000000     0.0279409  
C193     C      0.523550000000     0.313990000000     0.957170000000     0.0515466  
C194     C      0.440590000000     0.297790000000     0.979940000000     0.0675557  
C195     C      0.444650000000     0.338960000000     0.920520000000     0.067718   
C196     C      0.476080000000     0.336950000000     0.921450000000    -0.079228   
C197     C      0.582270000000     0.304060000000     0.067140000000    -0.223098   
C198     C      0.323660000000     0.443720000000     0.016710000000     0.151203   
C199     C      0.317090000000     0.442860000000     0.921110000000     0.0723849  
C200     C      0.323670000000     0.475020000000     0.015400000000    -0.12205    
C201     C      0.308750000000     0.540660000000     0.005640000000    -0.079112   
C202     C      0.316620000000     0.473790000000     0.919240000000    -0.0928606  
C203     C      0.321900000000     0.523340000000     0.964720000000     0.0279125  
C204     C      0.320470000000     0.490310000000     0.966510000000     0.0514873  
C205     C      0.311330000000     0.571600000000     0.004160000000     0.0677296  
C206     C      0.339090000000     0.568830000000     0.922210000000     0.0682685  
C207     C      0.337070000000     0.537870000000     0.922550000000    -0.0789567  
C208     C      0.326700000000     0.429240000000     0.071750000000    -0.223097   
Cd1      Cd     0.332000000000     0.333280000000     0.959280000000     0.506797   
Cd2      Cd     0.336750000000     0.679740000000     0.962540000000     0.508672   
Cd3      Cd     0.682880000000     0.323340000000     0.971100000000     0.506674   
Cd4      Cd     0.687410000000     0.670200000000     0.981890000000     0.506248   
Cd5      Cd     0.831480000000     0.168350000000     0.470570000000     0.507016   
Cd6      Cd     0.837770000000     0.823030000000     0.482200000000     0.508002   
Cd7      Cd     0.188780000000     0.834980000000     0.463400000000     0.507951   
Cd8      Cd     0.182430000000     0.179770000000     0.458990000000     0.508445   
H1       H      0.236420000000     0.086050000000     0.420140000000     0.0345897  
H2       H      0.194060000000     0.931560000000     0.549200000000     0.0330706  
H3       H      0.163780000000     0.025570000000     0.524110000000     0.0539073  
H4       H      0.195470000000     0.984840000000     0.554460000000     0.0569061  
H5       H      0.241770000000     0.032280000000     0.419970000000     0.0524657  
H6       H      0.214870000000     0.989640000000     0.384470000000     0.0625874  
H7       H      0.159470000000     0.079230000000     0.524200000000     0.0342518  
H8       H      0.197040000000     0.920920000000     0.346630000000     0.0984503  
H9       H      0.225470000000     0.948240000000     0.333720000000     0.0776798  
H10      H      0.236030000000     0.915070000000     0.367950000000     0.0966176  
H11      H      0.094070000000     0.776680000000     0.452680000000     0.0337521  
H12      H      0.936200000000     0.852520000000     0.415930000000     0.0339613  
H13      H      0.030260000000     0.865430000000     0.478890000000     0.0540167  
H14      H      0.990320000000     0.854540000000     0.413390000000     0.0573976  
H15      H      0.039440000000     0.771250000000     0.450250000000     0.0522487  
H16      H      0.995050000000     0.775180000000     0.509250000000     0.0620963  
H17      H      0.084670000000     0.870100000000     0.480380000000     0.0341192  
H18      H      0.919540000000     0.753130000000     0.490210000000     0.0971072  
H19      H      0.952970000000     0.747130000000     0.528430000000     0.0772424  
H20      H      0.924830000000     0.771570000000     0.555350000000     0.0991952  
H21      H      0.856440000000     0.922100000000     0.559310000000     0.0337993  
H22      H      0.820110000000     0.067470000000     0.403500000000     0.034568   
H23      H      0.786420000000     0.972300000000     0.434190000000     0.0537473  
H24      H      0.818340000000     0.014150000000     0.407300000000     0.0577565  
H25      H      0.853760000000     0.975930000000     0.559850000000     0.0528193  
H26      H      0.820580000000     0.017500000000     0.580750000000     0.0619307  
H27      H      0.790030000000     0.918420000000     0.434160000000     0.0350859  
H28      H      0.803090000000     0.092240000000     0.595350000000     0.0965282  
H29      H      0.819840000000     0.061130000000     0.628120000000     0.0768435  
H30      H      0.844080000000     0.088140000000     0.597850000000     0.0959718  
H31      H      0.081830000000     0.203260000000     0.530460000000     0.0348351  
H32      H      0.932610000000     0.140500000000     0.412020000000     0.0332954  
H33      H      0.028850000000     0.170430000000     0.365500000000     0.0534018  
H34      H      0.986750000000     0.143260000000     0.407290000000     0.0571811  
H35      H      0.027170000000     0.203330000000     0.529510000000     0.0524082  
H36      H      0.984670000000     0.228060000000     0.486770000000     0.0615346  
H37      H      0.083690000000     0.170240000000     0.368130000000     0.0341263  
H38      H      0.914330000000     0.226690000000     0.537030000000     0.0940542  
H39      H      0.940740000000     0.252030000000     0.507740000000     0.0755858  
H40      H      0.908120000000     0.242330000000     0.469750000000     0.0971071  
H41      H      0.840160000000     0.777680000000     0.662750000000     0.0328265  
H42      H      0.699510000000     0.749470000000     0.849760000000     0.0326021  
H43      H      0.729320000000     0.771160000000     0.677710000000     0.0528871  
H44      H      0.721810000000     0.775870000000     0.775090000000     0.0565646  
H45      H      0.818170000000     0.754250000000     0.741820000000     0.0520231  
H46      H      0.790970000000     0.709450000000     0.762740000000     0.0616611  
H47      H      0.752130000000     0.795050000000     0.599610000000     0.0339506  
H48      H      0.758550000000     0.655470000000     0.839140000000     0.0985379  
H49      H      0.794440000000     0.670130000000     0.820250000000     0.0768034  
H50      H      0.781120000000     0.676900000000     0.887170000000     0.098307   
H51      H      0.793360000000     0.736660000000     0.388450000000     0.0328764  
H52      H      0.764340000000     0.726630000000     0.076870000000     0.0323136  
H53      H      0.779400000000     0.790960000000     0.216920000000     0.0538723  
H54      H      0.789210000000     0.750030000000     0.152090000000     0.0567363  
H55      H      0.769860000000     0.711340000000     0.312590000000     0.0520214  
H56      H      0.722680000000     0.714400000000     0.260430000000     0.0622434  
H57      H      0.803000000000     0.815530000000     0.293400000000     0.0350209  
H58      H      0.693160000000     0.661220000000     0.173580000000     0.0981712  
H59      H      0.685570000000     0.682580000000     0.232750000000     0.0772829  
H60      H      0.669510000000     0.694430000000     0.170180000000     0.0989726  
H61      H      0.759310000000     0.312350000000     0.827860000000     0.033449   
H62      H      0.748420000000     0.202890000000     0.584030000000     0.0326374  
H63      H      0.716430000000     0.218420000000     0.759180000000     0.0529994  
H64      H      0.724580000000     0.226470000000     0.660470000000     0.0567813  
H65      H      0.783060000000     0.288180000000     0.751000000000     0.0522946  
H66      H      0.811270000000     0.242220000000     0.731830000000     0.0614691  
H67      H      0.693070000000     0.243310000000     0.835870000000     0.0334785  
H68      H      0.855020000000     0.230620000000     0.619300000000     0.0944952  
H69      H      0.855480000000     0.228910000000     0.691310000000     0.0750548  
H70      H      0.853230000000     0.194920000000     0.654420000000     0.0952273  
H71      H      0.755030000000     0.175270000000     0.326110000000     0.0341526  
H72      H      0.765100000000     0.287050000000     0.083140000000     0.0323384  
H73      H      0.795890000000     0.269470000000     0.254810000000     0.0521653  
H74      H      0.788750000000     0.263100000000     0.158840000000     0.0561134  
H75      H      0.731260000000     0.197810000000     0.247890000000     0.0523201  
H76      H      0.701760000000     0.240360000000     0.223300000000     0.0611968  
H77      H      0.819540000000     0.245910000000     0.332010000000     0.0322005  
H78      H      0.659760000000     0.251690000000     0.109010000000     0.094426   
H79      H      0.657690000000     0.252000000000     0.181020000000     0.0745917  
H80      H      0.658650000000     0.286730000000     0.146380000000     0.0941255  
H81      H      0.685430000000     0.571280000000     0.067980000000     0.0315643  
H82      H      0.674370000000     0.424120000000     0.902400000000     0.03328    
H83      H      0.711420000000     0.518730000000     0.898890000000     0.0521961  
H84      H      0.676660000000     0.477420000000     0.903590000000     0.0562229  
H85      H      0.686290000000     0.517350000000     0.067670000000     0.0514391  
H86      H      0.719410000000     0.475010000000     0.059180000000     0.0609984  
H87      H      0.709670000000     0.572620000000     0.900400000000     0.0317155  
H88      H      0.738790000000     0.400440000000     0.058860000000     0.0973216  
H89      H      0.731940000000     0.431630000000     0.101560000000     0.0762718  
H90      H      0.702930000000     0.404350000000     0.094780000000     0.0952298  
H91      H      0.313020000000     0.766600000000     0.849870000000     0.033739   
H92      H      0.191570000000     0.768960000000     0.619540000000     0.033468   
H93      H      0.251990000000     0.708830000000     0.720330000000     0.0532028  
H94      H      0.212880000000     0.744650000000     0.697250000000     0.0565875  
H95      H      0.289840000000     0.792100000000     0.774250000000     0.0524556  
H96      H      0.294580000000     0.794720000000     0.677540000000     0.0622873  
H97      H      0.274960000000     0.684150000000     0.797220000000     0.0337659  
H98      H      0.267170000000     0.848900000000     0.592850000000     0.0981211  
H99      H      0.300700000000     0.830020000000     0.612550000000     0.0774518  
H100     H      0.283580000000     0.819990000000     0.549920000000     0.0986632  
H101     H      0.190870000000     0.804270000000     0.271480000000     0.0330807  
H102     H      0.333740000000     0.741970000000     0.123020000000     0.0340686  
H103     H      0.290360000000     0.755910000000     0.288030000000     0.0530337  
H104     H      0.311950000000     0.767260000000     0.199330000000     0.0567263  
H105     H      0.212740000000     0.780160000000     0.192660000000     0.0523632  
H106     H      0.225290000000     0.730270000000     0.161450000000     0.0621333  
H107     H      0.268080000000     0.780600000000     0.365660000000     0.0324835  
H108     H      0.248160000000     0.675940000000     0.074040000000     0.099003   
H109     H      0.217240000000     0.699940000000     0.088980000000     0.0773476  
H110     H      0.240090000000     0.708160000000     0.031480000000     0.0972704  
H111     H      0.435740000000     0.700540000000     0.880450000000     0.034151   
H112     H      0.589560000000     0.709190000000     0.036890000000     0.0323865  
H113     H      0.491830000000     0.678850000000     0.048090000000     0.0533938  
H114     H      0.535320000000     0.713490000000     0.036810000000     0.0568198  
H115     H      0.490500000000     0.702060000000     0.878810000000     0.0525659  
H116     H      0.531470000000     0.665600000000     0.886750000000     0.0624532  
H117     H      0.437040000000     0.677730000000     0.048430000000     0.0341537  
H118     H      0.599660000000     0.636550000000     0.881790000000     0.0969012  
H119     H      0.574100000000     0.655110000000     0.837150000000     0.0770979  
H120     H      0.608620000000     0.673060000000     0.853790000000     0.0969243  
H121     H      0.182970000000     0.241100000000     0.622780000000     0.0349384  
H122     H      0.315870000000     0.252580000000     0.831180000000     0.0336035  
H123     H      0.291380000000     0.225940000000     0.658410000000     0.0531907  
H124     H      0.293410000000     0.226980000000     0.755850000000     0.0570018  
H125     H      0.205570000000     0.265230000000     0.700270000000     0.0524912  
H126     H      0.240170000000     0.304150000000     0.719900000000     0.0619336  
H127     H      0.267690000000     0.201350000000     0.581950000000     0.0340258  
H128     H      0.279620000000     0.354450000000     0.798310000000     0.0992296  
H129     H      0.244240000000     0.347560000000     0.766730000000     0.0772617  
H130     H      0.247410000000     0.341180000000     0.837740000000     0.0982557  
H131     H      0.221280000000     0.267830000000     0.362760000000     0.0332427  
H132     H      0.253800000000     0.276320000000     0.051330000000     0.032573   
H133     H      0.238910000000     0.212900000000     0.192720000000     0.0539657  
H134     H      0.228330000000     0.252950000000     0.126270000000     0.056923   
H135     H      0.243830000000     0.293660000000     0.286470000000     0.0519187  
H136     H      0.291730000000     0.291980000000     0.236390000000     0.0619975  
H137     H      0.216190000000     0.187820000000     0.269620000000     0.035052   
H138     H      0.320670000000     0.345280000000     0.147480000000     0.0943819  
H139     H      0.326890000000     0.326220000000     0.209520000000     0.0756494  
H140     H      0.345650000000     0.313020000000     0.150110000000     0.0973028  
H141     H      0.427320000000     0.282150000000     0.003400000000     0.0329812  
H142     H      0.585860000000     0.321690000000     0.879780000000     0.0336624  
H143     H      0.489260000000     0.352960000000     0.898780000000     0.0531628  
H144     H      0.531730000000     0.320800000000     0.871890000000     0.056805   
H145     H      0.481940000000     0.277750000000     0.006200000000     0.0520003  
H146     H      0.523750000000     0.306750000000     0.043050000000     0.0612862  
H147     H      0.434670000000     0.356500000000     0.896380000000     0.033211   
H148     H      0.593100000000     0.324540000000     0.082980000000     0.0943522  
H149     H      0.564690000000     0.297370000000     0.096850000000     0.0745363  
H150     H      0.598760000000     0.285510000000     0.065350000000     0.0944889  
H151     H      0.300970000000     0.584180000000     0.036700000000     0.0323153  
H152     H      0.314460000000     0.431300000000     0.882880000000     0.0316746  
H153     H      0.347940000000     0.525430000000     0.890450000000     0.0531593  
H154     H      0.313370000000     0.484670000000     0.880620000000     0.0560022  
H155     H      0.296390000000     0.530440000000     0.038570000000     0.0513572  
H156     H      0.326810000000     0.487460000000     0.052520000000     0.0613582  
H157     H      0.351270000000     0.579150000000     0.889080000000     0.0340843  
H158     H      0.348710000000     0.417580000000     0.074750000000     0.0950241  
H159     H      0.325840000000     0.445730000000     0.105210000000     0.0750544  
H160     H      0.307740000000     0.413570000000     0.078770000000     0.093464   
N1       N      0.203320000000     0.928920000000     0.463760000000    -0.194476   
N2       N      0.197410000000     0.086470000000     0.471730000000    -0.17881    
N3       N      0.933400000000     0.812970000000     0.464690000000    -0.194078   
N4       N      0.093300000000     0.823760000000     0.466410000000    -0.178712   
N5       N      0.822050000000     0.074210000000     0.489670000000    -0.194015   
N6       N      0.823730000000     0.916410000000     0.496250000000    -0.17847    
N7       N      0.926540000000     0.182220000000     0.453330000000    -0.194218   
N8       N      0.086690000000     0.186540000000     0.449540000000    -0.178284   
N9       N      0.732100000000     0.714000000000     0.850960000000    -0.193889   
N10      N      0.797760000000     0.787810000000     0.625270000000    -0.178609   
N11      N      0.728770000000     0.706630000000     0.123840000000    -0.194242   
N12      N      0.799770000000     0.777920000000     0.346470000000    -0.178718   
N13      N      0.793940000000     0.208810000000     0.612250000000    -0.194375   
N14      N      0.724510000000     0.279580000000     0.837410000000    -0.179088   
N15      N      0.719470000000     0.277680000000     0.107810000000    -0.194052   
N16      N      0.788990000000     0.208930000000     0.334650000000    -0.179126   
N17      N      0.694910000000     0.417830000000     0.980420000000    -0.194675   
N18      N      0.697180000000     0.575810000000     0.984130000000    -0.179568   
N19      N      0.230240000000     0.796450000000     0.602780000000    -0.194192   
N20      N      0.295740000000     0.723560000000     0.828900000000    -0.17913    
N21      N      0.292500000000     0.721320000000     0.096550000000    -0.193848   
N22      N      0.227850000000     0.794130000000     0.324210000000    -0.179603   
N23      N      0.592530000000     0.684590000000     0.962360000000    -0.19485    
N24      N      0.432460000000     0.688740000000     0.964390000000    -0.178476   
N25      N      0.290900000000     0.293210000000     0.820990000000    -0.193871   
N26      N      0.223720000000     0.219610000000     0.596620000000    -0.178137   
N27      N      0.287840000000     0.297890000000     0.099350000000    -0.19457    
N28      N      0.217300000000     0.225950000000     0.321820000000    -0.178784   
N29      N      0.586880000000     0.314910000000     0.965960000000    -0.193888   
N30      N      0.427090000000     0.319820000000     0.950200000000    -0.179476   
N31      N      0.321290000000     0.427680000000     0.968830000000    -0.194441   
N32      N      0.326550000000     0.585520000000     0.962930000000    -0.179111   
O1       O      0.327080000000     0.322680000000     0.056430000000    -0.257315   
O2       O      0.295990000000     0.331040000000     0.884330000000    -0.254856   
O3       O      0.379430000000     0.306480000000     0.979060000000    -0.25163    
O4       O      0.328890000000     0.381160000000     0.007190000000    -0.262781   
O5       O      0.322040000000     0.383160000000     0.921830000000    -0.249767   
O6       O      0.383340000000     0.344210000000     0.926500000000    -0.255986   
O7       O      0.290800000000     0.307080000000     0.007310000000    -0.25529    
O8       O      0.325300000000     0.293470000000     0.891470000000    -0.251953   
O9       O      0.319140000000     0.631950000000     0.000400000000    -0.252045   
O10      O      0.386190000000     0.691450000000     0.922090000000    -0.249709   
O11      O      0.293010000000     0.691100000000     0.020230000000    -0.258371   
O12      O      0.305630000000     0.681810000000     0.880010000000    -0.251683   
O13      O      0.325380000000     0.723100000000     0.905460000000    -0.25198    
O14      O      0.334650000000     0.711070000000     0.044240000000    -0.248631   
O15      O      0.343010000000     0.629410000000     0.924880000000    -0.251072   
O16      O      0.386850000000     0.678880000000     0.005920000000    -0.248966   
O17      O      0.633680000000     0.319640000000     0.925050000000    -0.248951   
O18      O      0.698540000000     0.370090000000     0.015760000000    -0.263047   
O19      O      0.688380000000     0.282760000000     0.904530000000    -0.252627   
O20      O      0.679670000000     0.293330000000     0.053840000000    -0.257067   
O21      O      0.724270000000     0.305320000000     0.029210000000    -0.252897   
O22      O      0.720900000000     0.318020000000     0.898890000000    -0.251915   
O23      O      0.632540000000     0.318100000000     0.011480000000    -0.257009   
O24      O      0.680530000000     0.374720000000     0.936330000000    -0.253547   
O25      O      0.727230000000     0.675900000000     0.913840000000    -0.254376   
O26      O      0.690520000000     0.680890000000     0.079740000000    -0.25487    
O27      O      0.699170000000     0.621330000000     0.941450000000    -0.251758   
O28      O      0.638280000000     0.663550000000     0.937360000000    -0.263074   
O29      O      0.638300000000     0.693470000000     0.004440000000    -0.252065   
O30      O      0.687800000000     0.620790000000     0.025800000000    -0.255754   
O31      O      0.693980000000     0.710390000000     0.914980000000    -0.253434   
O32      O      0.727200000000     0.696920000000     0.031910000000    -0.255209   
O33      O      0.833880000000     0.191020000000     0.560630000000    -0.258474   
O34      O      0.825620000000     0.206940000000     0.400650000000    -0.256412   
O35      O      0.827960000000     0.122080000000     0.523560000000    -0.263173   
O36      O      0.882730000000     0.155350000000     0.438540000000    -0.253519   
O37      O      0.878730000000     0.196010000000     0.482590000000    -0.256604   
O38      O      0.824550000000     0.117010000000     0.437870000000    -0.247627   
O39      O      0.789560000000     0.186910000000     0.527710000000    -0.254496   
O40      O      0.792630000000     0.172050000000     0.399170000000    -0.248583   
O41      O      0.886650000000     0.797740000000     0.497400000000    -0.255145   
O42      O      0.812430000000     0.870410000000     0.460160000000    -0.246341   
O43      O      0.838830000000     0.800720000000     0.572900000000    -0.248398   
O44      O      0.816620000000     0.779370000000     0.434720000000    -0.253934   
O45      O      0.820290000000     0.819250000000     0.387650000000    -0.247743   
O46      O      0.794700000000     0.810300000000     0.541490000000    -0.251203   
O47      O      0.887800000000     0.835540000000     0.445340000000    -0.252775   
O48      O      0.846040000000     0.872430000000     0.522530000000    -0.252377   
O49      O      0.141740000000     0.805180000000     0.458780000000    -0.247533   
O50      O      0.193390000000     0.884090000000     0.505910000000    -0.250941   
O51      O      0.189700000000     0.820040000000     0.367020000000    -0.251991   
O52      O      0.190330000000     0.801790000000     0.543120000000    -0.251413   
O53      O      0.229450000000     0.828460000000     0.529180000000    -0.257657   
O54      O      0.228460000000     0.807950000000     0.413980000000    -0.255493   
O55      O      0.136500000000     0.851990000000     0.473130000000    -0.25279    
O56      O      0.201130000000     0.883020000000     0.420550000000    -0.26052    
O57      O      0.210520000000     0.133220000000     0.441260000000    -0.247166   
O58      O      0.132020000000     0.192200000000     0.493890000000    -0.243627   
O59      O      0.199290000000     0.183850000000     0.364140000000    -0.246966   
O60      O      0.225170000000     0.189280000000     0.521150000000    -0.250897   
O61      O      0.183280000000     0.210970000000     0.540330000000    -0.243907   
O62      O      0.200730000000     0.224230000000     0.410330000000    -0.254098   
O63      O      0.171900000000     0.129520000000     0.493340000000    -0.254234   
O64      O      0.133290000000     0.176180000000     0.412060000000    -0.251078   


