data_structure

_audit_creation_method RASPA-1.0
_audit_creation_date 2023-6-5
_audit_author_name 'Poobodin Mano'

_cell_length_a    56.1469
_cell_length_b    57.5364
_cell_length_c    31.7058
_cell_angle_alpha 90.0363
_cell_angle_beta  89.9138
_cell_angle_gamma 90
_cell_volume      102425

_symmetry_cell_setting          triclinic
_symmetry_space_group_name_Hall 'P 1'
_symmetry_space_group_name_H-M  'P 1'
_symmetry_Int_Tables_number     1

_symmetry_equiv_pos_as_xyz 'x,y,z'

loop_
_atom_site_label
_atom_site_type_symbol
_atom_site_fract_x
_atom_site_fract_y
_atom_site_fract_z
_atom_site_charge
C1       C      0.391340000000     0.333490000000     0.972740000000     0.347516   
C2       C      0.322520000000     0.317540000000     0.041850000000     0.346307   
C3       C      0.327570000000     0.387660000000     0.957790000000     0.34643    
C4       C      0.319610000000     0.319030000000     0.890410000000     0.34702    
C5       C      0.312880000000     0.706450000000     0.032180000000     0.349371   
C6       C      0.324730000000     0.632230000000     0.961580000000     0.348868   
C7       C      0.314950000000     0.701820000000     0.886120000000     0.346033   
C8       C      0.386130000000     0.683690000000     0.964590000000     0.34578    
C9       C      0.642860000000     0.318360000000     0.986740000000     0.346891   
C10      C      0.714660000000     0.296780000000     0.913650000000     0.345901   
C11      C      0.702110000000     0.370420000000     0.984530000000     0.346662   
C12      C      0.716370000000     0.296230000000     0.055940000000     0.347532   
C13      C      0.694060000000     0.616190000000     0.972870000000     0.346738   
C14      C      0.712860000000     0.688030000000     0.897560000000     0.347039   
C15      C      0.638110000000     0.670840000000     0.964390000000     0.347075   
C16      C      0.712190000000     0.687300000000     0.042000000000     0.346695   
C17      C      0.820320000000     0.188430000000     0.558230000000     0.3469     
C18      C      0.831980000000     0.116710000000     0.484170000000     0.34757    
C19      C      0.820570000000     0.187610000000     0.411430000000     0.346771   
C20      C      0.892490000000     0.172110000000     0.489730000000     0.34871    
C21      C      0.814250000000     0.797210000000     0.539160000000     0.345071   
C22      C      0.887830000000     0.819240000000     0.464640000000     0.346095   
C23      C      0.814160000000     0.797940000000     0.398170000000     0.345824   
C24      C      0.829280000000     0.871020000000     0.476160000000     0.346408   
C25      C      0.212920000000     0.820120000000     0.386980000000     0.348268   
C26      C      0.139710000000     0.832860000000     0.465870000000     0.345789   
C27      C      0.211770000000     0.815330000000     0.534580000000     0.346271   
C28      C      0.198360000000     0.888330000000     0.464450000000     0.347666   
C29      C      0.217440000000     0.206550000000     0.394630000000     0.347472   
C30      C      0.201070000000     0.133940000000     0.463570000000     0.345171   
C31      C      0.218160000000     0.205780000000     0.536490000000     0.346424   
C32      C      0.143490000000     0.187810000000     0.469080000000     0.347075   
C33      C      0.202910000000     0.949390000000     0.500660000000    -0.102424   
C34      C      0.206900000000     0.098850000000     0.425210000000     0.0720273  
C35      C      0.201880000000     0.097700000000     0.499450000000     0.0719276  
C36      C      0.208500000000     0.074630000000     0.423700000000    -0.0888683  
C37      C      0.195060000000     0.023410000000     0.428720000000    -0.0345976  
C38      C      0.194800000000     0.999120000000     0.429030000000    -0.032705   
C39      C      0.207460000000     0.035830000000     0.459930000000    -0.00413948 
C40      C      0.203510000000     0.073490000000     0.499120000000    -0.0888897  
C41      C      0.206970000000     0.986690000000     0.460500000000    -0.00716556 
C42      C      0.206550000000     0.947600000000     0.425340000000    -0.0922364  
C43      C      0.219810000000     0.999130000000     0.491160000000    -0.0329742  
C44      C      0.204420000000     0.923470000000     0.427460000000     0.0720443  
C45      C      0.200840000000     0.925130000000     0.502150000000     0.103024   
C46      C      0.220010000000     0.023420000000     0.490910000000    -0.034843   
C47      C      0.206670000000     0.061640000000     0.460920000000     0.0496508  
C48      C      0.205630000000     0.960890000000     0.462140000000     0.0557572  
C49      C      0.950330000000     0.821040000000     0.426960000000    -0.102237   
C50      C      0.101280000000     0.849150000000     0.476580000000     0.0719776  
C51      C      0.105090000000     0.809400000000     0.457970000000     0.0720944  
C52      C      0.076510000000     0.847150000000     0.477200000000    -0.0886262  
C53      C      0.025500000000     0.834730000000     0.498840000000    -0.034743   
C54      C      0.000670000000     0.833180000000     0.498150000000    -0.0327378  
C55      C      0.039310000000     0.823540000000     0.467880000000    -0.00400618 
C56      C      0.080340000000     0.806790000000     0.458300000000    -0.0885169  
C57      C      0.989030000000     0.820390000000     0.466500000000    -0.0072295  
C58      C      0.949320000000     0.816980000000     0.502240000000    -0.0923375  
C59      C      0.002850000000     0.808980000000     0.435800000000    -0.0328122  
C60      C      0.924520000000     0.816750000000     0.500650000000     0.0715613  
C61      C      0.925350000000     0.820740000000     0.426030000000     0.102374   
C62      C      0.027700000000     0.810520000000     0.436490000000    -0.0347231  
C63      C      0.065700000000     0.825810000000     0.467910000000     0.0494631  
C64      C      0.962570000000     0.819320000000     0.465200000000     0.0554426  
C65      C      0.823540000000     0.930800000000     0.518420000000    -0.102472   
C66      C      0.827790000000     0.081230000000     0.446320000000     0.0721466  
C67      C      0.827140000000     0.081080000000     0.521090000000     0.0725619  
C68      C      0.825850000000     0.057020000000     0.445520000000    -0.088513   
C69      C      0.810260000000     0.006540000000     0.453520000000    -0.0345924  
C70      C      0.810080000000     0.982240000000     0.452940000000    -0.0328865  
C71      C      0.824050000000     0.018670000000     0.483270000000    -0.0040744  
C72      C      0.825180000000     0.056900000000     0.521450000000    -0.0889127  
C73      C      0.823680000000     0.969510000000     0.482110000000    -0.0071185  
C74      C      0.825220000000     0.931720000000     0.442820000000    -0.0920684  
C75      C      0.837360000000     0.981650000000     0.511980000000    -0.0328848  
C76      C      0.826520000000     0.907520000000     0.442490000000     0.0719894  
C77      C      0.824790000000     0.906460000000     0.517410000000     0.102775   
C78      C      0.837550000000     0.005920000000     0.512540000000    -0.034552   
C79      C      0.824810000000     0.044510000000     0.483390000000     0.0497085  
C80      C      0.824000000000     0.943680000000     0.481070000000     0.0556857  
C81      C      0.956810000000     0.161570000000     0.507040000000    -0.102561   
C82      C      0.105560000000     0.182230000000     0.437460000000     0.0721977  
C83      C      0.108180000000     0.196400000000     0.507540000000     0.0721937  
C84      C      0.080720000000     0.182330000000     0.439750000000    -0.0887856  
C85      C      0.028370000000     0.195050000000     0.446530000000    -0.0346688  
C86      C      0.003600000000     0.193140000000     0.449380000000    -0.0326681  
C87      C      0.042930000000     0.188520000000     0.480580000000    -0.00407625 
C88      C      0.083370000000     0.196730000000     0.510910000000    -0.0888264  
C89      C      0.992820000000     0.184630000000     0.486330000000    -0.00726405 
C90      C      0.951120000000     0.198040000000     0.471850000000    -0.0923649  
C91      C      0.007360000000     0.178520000000     0.520640000000    -0.03284    
C92      C      0.926560000000     0.194430000000     0.473320000000     0.0723015  
C93      C      0.932090000000     0.158260000000     0.508200000000     0.102972   
C94      C      0.032110000000     0.180440000000     0.517800000000    -0.0346376  
C95      C      0.069310000000     0.189430000000     0.476920000000     0.0497294  
C96      C      0.966580000000     0.181470000000     0.488610000000     0.0558447  
C97      C      0.756060000000     0.703090000000     0.813430000000    -0.102361   
C98      C      0.781810000000     0.792390000000     0.586710000000     0.0719882  
C99      C      0.816440000000     0.769170000000     0.594050000000     0.0719541  
C100     C      0.771490000000     0.781730000000     0.621850000000    -0.088647   
C101     C      0.749300000000     0.747000000000     0.682700000000    -0.0347556  
C102     C      0.739520000000     0.736350000000     0.718370000000    -0.0329695  
C103     C      0.773510000000     0.753230000000     0.681710000000    -0.00413975 
C104     C      0.806680000000     0.758180000000     0.629330000000    -0.088716   
C105     C      0.753700000000     0.731710000000     0.753890000000    -0.00715802 
C106     C      0.720730000000     0.726200000000     0.806390000000    -0.0923235  
C107     C      0.777890000000     0.738030000000     0.752950000000    -0.0330096  
C108     C      0.711270000000     0.715170000000     0.841800000000     0.0716925  
C109     C      0.746230000000     0.692210000000     0.848980000000     0.102592   
C110     C      0.787670000000     0.748650000000     0.717290000000    -0.0346569  
C111     C      0.783980000000     0.764480000000     0.643780000000     0.0495391  
C112     C      0.743360000000     0.720210000000     0.791730000000     0.0554967  
C113     C      0.750530000000     0.697780000000     0.135150000000    -0.102324   
C114     C      0.785620000000     0.797540000000     0.342820000000     0.0720023  
C115     C      0.812010000000     0.765720000000     0.351340000000     0.0718471  
C116     C      0.775190000000     0.786840000000     0.307860000000    -0.0886917  
C117     C      0.766970000000     0.766310000000     0.220620000000    -0.0346317  
C118     C      0.757110000000     0.755370000000     0.185350000000    -0.0328125  
C119     C      0.772590000000     0.753470000000     0.256980000000    -0.00411819 
C120     C      0.801940000000     0.754490000000     0.316600000000    -0.0888916  
C121     C      0.752600000000     0.731330000000     0.185630000000    -0.00707203 
C122     C      0.724310000000     0.730170000000     0.124480000000    -0.0920482  
C123     C      0.758100000000     0.718520000000     0.222110000000    -0.0329218  
C124     C      0.714850000000     0.718910000000     0.089320000000     0.0718103  
C125     C      0.740780000000     0.686750000000     0.099700000000     0.102761   
C126     C      0.768000000000     0.729460000000     0.257340000000    -0.0347564  
C127     C      0.783340000000     0.765060000000     0.294300000000     0.0495517  
C128     C      0.742320000000     0.719610000000     0.147970000000     0.0555732  
C129     C      0.722670000000     0.259000000000     0.820050000000    -0.102608   
C130     C      0.822910000000     0.215210000000     0.615220000000     0.0721193  
C131     C      0.787530000000     0.193460000000     0.604820000000     0.0725795  
C132     C      0.812900000000     0.226190000000     0.650340000000    -0.0890148  
C133     C      0.791780000000     0.236030000000     0.737070000000    -0.034641   
C134     C      0.781260000000     0.246610000000     0.772150000000    -0.0329787  
C135     C      0.778590000000     0.232300000000     0.700030000000    -0.00426788 
C136     C      0.776950000000     0.204140000000     0.639670000000    -0.0890866  
C137     C      0.757310000000     0.253730000000     0.770970000000    -0.00723667 
C138     C      0.758300000000     0.280870000000     0.832880000000    -0.0923488  
C139     C      0.744190000000     0.250160000000     0.733780000000    -0.033032   
C140     C      0.747310000000     0.291060000000     0.867770000000     0.0715197  
C141     C      0.711940000000     0.269420000000     0.855250000000     0.102552   
C142     C      0.754700000000     0.239550000000     0.698750000000    -0.0347151  
C143     C      0.789630000000     0.220740000000     0.662910000000     0.0497782  
C144     C      0.745970000000     0.264700000000     0.808430000000     0.0554925  
C145     C      0.732770000000     0.251150000000     0.134080000000    -0.10267    
C146     C      0.790600000000     0.211180000000     0.380330000000     0.0720859  
C147     C      0.821400000000     0.195420000000     0.337790000000     0.0723892  
C148     C      0.780580000000     0.222090000000     0.345270000000    -0.0888927  
C149     C      0.771980000000     0.253890000000     0.270290000000    -0.0346445  
C150     C      0.761800000000     0.264520000000     0.235040000000    -0.0327473  
C151     C      0.780670000000     0.231010000000     0.267840000000    -0.00418892 
C152     C      0.811800000000     0.206020000000     0.302010000000    -0.088905   
C153     C      0.759980000000     0.252480000000     0.196590000000    -0.0073042  
C154     C      0.753440000000     0.286690000000     0.149110000000    -0.0923466  
C155     C      0.768780000000     0.229650000000     0.194080000000    -0.032919   
C156     C      0.742470000000     0.296880000000     0.114280000000     0.0720632  
C157     C      0.721850000000     0.261730000000     0.099290000000     0.102732   
C158     C      0.779050000000     0.219050000000     0.229280000000    -0.0347068  
C159     C      0.791170000000     0.219590000000     0.305490000000     0.04974    
C160     C      0.748640000000     0.263590000000     0.159400000000     0.0558173  
C161     C      0.714570000000     0.430470000000     0.948760000000    -0.102533   
C162     C      0.688570000000     0.580490000000     0.009400000000     0.0721276  
C163     C      0.705940000000     0.580560000000     0.941190000000     0.0721775  
C164     C      0.690430000000     0.556310000000     0.011400000000    -0.0887765  
C165     C      0.708500000000     0.506560000000     0.015920000000    -0.0344665  
C166     C      0.709750000000     0.482300000000     0.017120000000    -0.0329328  
C167     C      0.701890000000     0.518130000000     0.978660000000    -0.00437804 
C168     C      0.708060000000     0.556380000000     0.942130000000    -0.0889384  
C169     C      0.704430000000     0.469040000000     0.981080000000    -0.0072388  
C170     C      0.696180000000     0.431110000000     0.017110000000    -0.0920835  
C171     C      0.697950000000     0.480610000000     0.943780000000    -0.0330241  
C172     C      0.696020000000     0.406880000000     0.017050000000     0.0719283  
C173     C      0.714320000000     0.406100000000     0.949390000000     0.102846   
C174     C      0.696690000000     0.504850000000     0.942590000000    -0.0346162  
C175     C      0.700190000000     0.543920000000     0.977460000000     0.04951    
C176     C      0.705190000000     0.443220000000     0.982450000000     0.0554686  
C177     C      0.277490000000     0.712330000000     0.791960000000    -0.102959   
C178     C      0.240710000000     0.814200000000     0.589180000000     0.0721725  
C179     C      0.213040000000     0.783330000000     0.581940000000     0.0718034  
C180     C      0.251200000000     0.803210000000     0.623730000000    -0.0889152  
C181     C      0.278310000000     0.770000000000     0.680300000000    -0.0345993  
C182     C      0.288600000000     0.758690000000     0.714750000000    -0.0329651  
C183     C      0.253480000000     0.769710000000     0.674390000000    -0.00418297 
C184     C      0.223170000000     0.771810000000     0.616280000000    -0.0886892  
C185     C      0.274320000000     0.746720000000     0.743970000000    -0.00738732 
C186     C      0.303220000000     0.744950000000     0.804030000000    -0.0924365  
C187     C      0.249510000000     0.746440000000     0.738140000000    -0.0331387  
C188     C      0.312810000000     0.733430000000     0.838760000000     0.0715148  
C189     C      0.287470000000     0.700970000000     0.826800000000     0.102734   
C190     C      0.239210000000     0.757840000000     0.703820000000    -0.0347217  
C191     C      0.242490000000     0.781720000000     0.637700000000     0.0495495  
C192     C      0.285200000000     0.734510000000     0.780410000000     0.0556497  
C193     C      0.269220000000     0.735470000000     0.102350000000    -0.102634   
C194     C      0.247050000000     0.805570000000     0.351160000000     0.0721028  
C195     C      0.209560000000     0.805880000000     0.316840000000     0.072388   
C196     C      0.257630000000     0.795220000000     0.315950000000    -0.0887048  
C197     C      0.271570000000     0.760390000000     0.248480000000    -0.0344009  
C198     C      0.281280000000     0.748970000000     0.213540000000    -0.0329648  
C199     C      0.254600000000     0.778130000000     0.243180000000    -0.00411085 
C200     C      0.219540000000     0.795480000000     0.281140000000    -0.0886732  
C201     C      0.274170000000     0.754950000000     0.172480000000    -0.00715337 
C202     C      0.308260000000     0.737160000000     0.132890000000    -0.0923778  
C203     C      0.257350000000     0.772790000000     0.167110000000    -0.0330814  
C204     C      0.317180000000     0.725270000000     0.097930000000     0.0720504  
C205     C      0.278510000000     0.723430000000     0.067570000000     0.102994   
C206     C      0.247710000000     0.784270000000     0.202040000000    -0.0346451  
C207     C      0.243830000000     0.789860000000     0.280440000000     0.049636   
C208     C      0.284040000000     0.742410000000     0.135410000000     0.0557548  
C209     C      0.575090000000     0.665920000000     0.930950000000    -0.102423   
C210     C      0.422770000000     0.669400000000     0.991570000000     0.0721974  
C211     C      0.422920000000     0.699060000000     0.939710000000     0.0719108  
C212     C      0.447620000000     0.669130000000     0.992110000000    -0.0888692  
C213     C      0.499910000000     0.680470000000     0.002850000000    -0.0344555  
C214     C      0.524760000000     0.679030000000     0.002180000000    -0.0326877  
C215     C      0.487010000000     0.683590000000     0.965270000000    -0.00419115 
C216     C      0.447810000000     0.699300000000     0.939520000000    -0.0885897  
C217     C      0.537350000000     0.680730000000     0.963940000000    -0.00720281 
C218     C      0.577800000000     0.688200000000     0.994730000000    -0.0922219  
C219     C      0.524480000000     0.684240000000     0.926450000000    -0.0328642  
C220     C      0.602460000000     0.685350000000     0.993980000000     0.0717924  
C221     C      0.599920000000     0.663290000000     0.930700000000     0.102825   
C222     C      0.499630000000     0.685620000000     0.927100000000    -0.0345761  
C223     C      0.460510000000     0.684130000000     0.965780000000     0.0495874  
C224     C      0.563750000000     0.678380000000     0.963100000000     0.0555858  
C225     C      0.252250000000     0.216060000000     0.634710000000    -0.102167   
C226     C      0.285950000000     0.304560000000     0.853280000000     0.0721947  
C227     C      0.324190000000     0.303260000000     0.821560000000     0.0723546  
C228     C      0.275900000000     0.293850000000     0.817980000000    -0.088644   
C229     C      0.257450000000     0.282050000000     0.730720000000    -0.0345441  
C230     C      0.247630000000     0.270580000000     0.696000000000    -0.032755   
C231     C      0.280030000000     0.275770000000     0.746140000000    -0.00404793 
C232     C      0.314720000000     0.292640000000     0.785700000000    -0.0887103  
C233     C      0.260160000000     0.252580000000     0.675720000000    -0.00702627 
C234     C      0.236410000000     0.252010000000     0.608740000000    -0.0921576  
C235     C      0.282820000000     0.246450000000     0.690900000000    -0.0329104  
C236     C      0.226290000000     0.239980000000     0.575060000000     0.0720694  
C237     C      0.242010000000     0.204280000000     0.600520000000     0.102588   
C238     C      0.292600000000     0.257860000000     0.725720000000    -0.0344782  
C239     C      0.290320000000     0.287650000000     0.783630000000     0.049648   
C240     C      0.249530000000     0.240090000000     0.639190000000     0.0555925  
C241     C      0.304410000000     0.306630000000     0.152500000000    -0.102599   
C242     C      0.250960000000     0.211690000000     0.349650000000     0.0722283  
C243     C      0.215910000000     0.233820000000     0.338400000000     0.0723194  
C244     C      0.262040000000     0.222470000000     0.315370000000    -0.0889311  
C245     C      0.275130000000     0.238250000000     0.226730000000    -0.0345785  
C246     C      0.285680000000     0.249200000000     0.192090000000    -0.0328096  
C247     C      0.261260000000     0.251020000000     0.255520000000    -0.00414419 
C248     C      0.226460000000     0.244970000000     0.304030000000    -0.0888599  
C249     C      0.282660000000     0.273180000000     0.185530000000    -0.00723234 
C250     C      0.293350000000     0.274330000000     0.108810000000    -0.0922887  
C251     C      0.268890000000     0.285960000000     0.214430000000    -0.0327879  
C252     C      0.303300000000     0.285700000000     0.074210000000     0.0720373  
C253     C      0.314390000000     0.317750000000     0.117330000000     0.102882   
C254     C      0.258290000000     0.275010000000     0.249000000000    -0.0347573  
C255     C      0.249790000000     0.239350000000     0.292090000000     0.0497449  
C256     C      0.293670000000     0.284820000000     0.148490000000     0.0557709  
C257     C      0.579890000000     0.312360000000     0.020190000000    -0.102365   
C258     C      0.429530000000     0.350160000000     0.983720000000     0.072405   
C259     C      0.426060000000     0.309830000000     0.969470000000     0.0720659  
C260     C      0.454280000000     0.348260000000     0.985550000000    -0.0888785  
C261     C      0.505960000000     0.341700000000     0.961000000000    -0.0348069  
C262     C      0.530750000000     0.339910000000     0.962040000000    -0.0326627  
C263     C      0.491610000000     0.324570000000     0.979820000000    -0.00398156 
C264     C      0.450800000000     0.307310000000     0.971130000000    -0.0887163  
C265     C      0.541810000000     0.320950000000     0.981920000000    -0.00759013 
C266     C      0.581940000000     0.325090000000     0.948230000000    -0.092888   
C267     C      0.527480000000     0.303750000000     0.000610000000    -0.0324647  
C268     C      0.606700000000     0.324230000000     0.950450000000     0.0718559  
C269     C      0.604850000000     0.311610000000     0.021790000000     0.102603   
C270     C      0.502650000000     0.305520000000     0.999510000000    -0.0351728  
C271     C      0.465240000000     0.326690000000     0.978970000000     0.04967    
C272     C      0.568210000000     0.319320000000     0.983410000000     0.0556776  
C273     C      0.304920000000     0.572880000000     0.990420000000    -0.102584   
C274     C      0.332720000000     0.424200000000     0.924120000000     0.0722903  
C275     C      0.308950000000     0.421450000000     0.985810000000     0.0719866  
C276     C      0.329540000000     0.448250000000     0.923130000000    -0.0888118  
C277     C      0.311050000000     0.497780000000     0.918460000000    -0.0347991  
C278     C      0.310930000000     0.522070000000     0.919320000000    -0.0331599  
C279     C      0.314160000000     0.484990000000     0.955800000000    -0.00420698 
C280     C      0.305480000000     0.445500000000     0.985860000000    -0.0890283  
C281     C      0.313970000000     0.534120000000     0.957540000000    -0.00713381 
C282     C      0.328250000000     0.571740000000     0.926990000000    -0.092419   
C283     C      0.316480000000     0.521310000000     0.995010000000    -0.0329905  
C284     C      0.330550000000     0.595820000000     0.928900000000     0.072536   
C285     C      0.307440000000     0.597130000000     0.991760000000     0.102733   
C286     C      0.316550000000     0.497030000000     0.994160000000    -0.0346431  
C287     C      0.316100000000     0.459250000000     0.954610000000     0.0497163  
C288     C      0.315530000000     0.559920000000     0.958150000000     0.0557022  
Cd1      Cd     0.340290000000     0.339170000000     0.965410000000     0.509168   
Cd2      Cd     0.334680000000     0.681620000000     0.962130000000     0.50937    
Cd3      Cd     0.694430000000     0.320550000000     0.985890000000     0.509977   
Cd4      Cd     0.689490000000     0.666170000000     0.969160000000     0.509303   
Cd5      Cd     0.841240000000     0.166190000000     0.485400000000     0.508829   
Cd6      Cd     0.836200000000     0.821170000000     0.469050000000     0.509173   
Cd7      Cd     0.190930000000     0.838560000000     0.462540000000     0.508505   
Cd8      Cd     0.194860000000     0.183810000000     0.465370000000     0.509219   
H1       H      0.199170000000     0.106190000000     0.529630000000     0.0335069  
H2       H      0.205120000000     0.914090000000     0.397810000000     0.0336436  
H3       H      0.230060000000     0.032480000000     0.514980000000     0.0406525  
H4       H      0.184470000000     0.990100000000     0.405290000000     0.0405173  
H5       H      0.209010000000     0.955750000000     0.394860000000     0.056296   
H6       H      0.184960000000     0.032470000000     0.404730000000     0.0410719  
H7       H      0.201930000000     0.959310000000     0.529700000000     0.0595217  
H8       H      0.201740000000     0.064120000000     0.528570000000     0.0555011  
H9       H      0.211230000000     0.066160000000     0.393560000000     0.0555586  
H10      H      0.229740000000     0.990100000000     0.515390000000     0.0396443  
H11      H      0.208300000000     0.108280000000     0.395700000000     0.0332136  
H12      H      0.220030000000     0.908010000000     0.568830000000     0.044828   
H13      H      0.115800000000     0.794270000000     0.450380000000     0.0334913  
H14      H      0.915230000000     0.814990000000     0.530490000000     0.0339891  
H15      H      0.037780000000     0.801850000000     0.411950000000     0.0407532  
H16      H      0.990570000000     0.842370000000     0.522050000000     0.0401283  
H17      H      0.958050000000     0.815210000000     0.532510000000     0.0561958  
H18      H      0.033880000000     0.844670000000     0.523760000000     0.0407191  
H19      H      0.960190000000     0.823050000000     0.397760000000     0.0596347  
H20      H      0.072760000000     0.789890000000     0.451440000000     0.055405   
H21      H      0.065900000000     0.862400000000     0.484220000000     0.0554984  
H22      H      0.994460000000     0.798760000000     0.411260000000     0.0397382  
H23      H      0.108900000000     0.866020000000     0.483700000000     0.033218   
H24      H      0.909180000000     0.801060000000     0.359140000000     0.0452272  
H25      H      0.827620000000     0.089970000000     0.551250000000     0.0331065  
H26      H      0.827820000000     0.899220000000     0.411850000000     0.0344685  
H27      H      0.848720000000     0.014690000000     0.535380000000     0.0408182  
H28      H      0.799120000000     0.973400000000     0.429880000000     0.0404445  
H29      H      0.825770000000     0.941010000000     0.413130000000     0.0564959  
H30      H      0.799410000000     0.015830000000     0.430900000000     0.0407243  
H31      H      0.822010000000     0.939670000000     0.548480000000     0.0595992  
H32      H      0.823980000000     0.047980000000     0.551450000000     0.0553713  
H33      H      0.825830000000     0.048160000000     0.415370000000     0.0554871  
H34      H      0.848360000000     0.972390000000     0.534420000000     0.0399652  
H35      H      0.828950000000     0.090240000000     0.416360000000     0.0330679  
H36      H      0.845850000000     0.889740000000     0.582620000000     0.046181   
H37      H      0.118420000000     0.202010000000     0.534670000000     0.0331449  
H38      H      0.915450000000     0.207870000000     0.459650000000     0.0340221  
H39      H      0.042790000000     0.175060000000     0.544480000000     0.0407762  
H40      H      0.992930000000     0.197820000000     0.422260000000     0.0405439  
H41      H      0.957910000000     0.213870000000     0.457790000000     0.0565158  
H42      H      0.036120000000     0.201590000000     0.417590000000     0.0409079  
H43      H      0.968450000000     0.148330000000     0.519940000000     0.0597618  
H44      H      0.075300000000     0.202690000000     0.540020000000     0.0555275  
H45      H      0.070580000000     0.176300000000     0.412860000000     0.0557186  
H46      H      0.999600000000     0.172180000000     0.549740000000     0.0397248  
H47      H      0.113690000000     0.176300000000     0.408330000000     0.0332247  
H48      H      0.918770000000     0.136530000000     0.575030000000     0.0448441  
H49      H      0.834060000000     0.763810000000     0.583960000000     0.0334481  
H50      H      0.693620000000     0.720590000000     0.851710000000     0.0333937  
H51      H      0.806280000000     0.753580000000     0.717840000000     0.0409291  
H52      H      0.720910000000     0.731400000000     0.717820000000     0.0400523  
H53      H      0.710380000000     0.739580000000     0.790900000000     0.0561703  
H54      H      0.737980000000     0.749990000000     0.655620000000     0.0407003  
H55      H      0.773550000000     0.697900000000     0.802340000000     0.059375   
H56      H      0.816820000000     0.744690000000     0.644950000000     0.0553629  
H57      H      0.754000000000     0.787300000000     0.632170000000     0.0555426  
H58      H      0.789220000000     0.735060000000     0.780030000000     0.0404389  
H59      H      0.771650000000     0.805810000000     0.570840000000     0.0333704  
H60      H      0.759580000000     0.649610000000     0.855350000000     0.0465716  
H61      H      0.826470000000     0.757010000000     0.367570000000     0.0325406  
H62      H      0.700800000000     0.727910000000     0.072520000000     0.034294   
H63      H      0.771780000000     0.719130000000     0.285090000000     0.0406528  
H64      H      0.753430000000     0.765700000000     0.157570000000     0.0403986  
H65      H      0.717230000000     0.746960000000     0.133500000000     0.0563598  
H66      H      0.770600000000     0.784780000000     0.219110000000     0.0410444  
H67      H      0.764820000000     0.689410000000     0.152360000000     0.0595235  
H68      H      0.808970000000     0.737790000000     0.306910000000     0.0552787  
H69      H      0.760660000000     0.795500000000     0.291860000000     0.0556234  
H70      H      0.754480000000     0.700050000000     0.223680000000     0.0398183  
H71      H      0.778780000000     0.814370000000     0.352330000000     0.0336141  
H72      H      0.740700000000     0.642250000000     0.106990000000     0.0460739  
H73      H      0.777120000000     0.180670000000     0.587760000000     0.0334803  
H74      H      0.757730000000     0.303630000000     0.885360000000     0.0340742  
H75      H      0.744160000000     0.237280000000     0.670450000000     0.0407239  
H76      H      0.791770000000     0.248810000000     0.800480000000     0.0401285  
H77      H      0.776300000000     0.285990000000     0.824800000000     0.0561971  
H78      H      0.810140000000     0.230370000000     0.739250000000     0.0406898  
H79      H      0.712870000000     0.246130000000     0.802070000000     0.0593463  
H80      H      0.759040000000     0.199180000000     0.648630000000     0.0555584  
H81      H      0.823230000000     0.239100000000     0.667140000000     0.0554354  
H82      H      0.725840000000     0.255810000000     0.731540000000     0.0397847  
H83      H      0.840920000000     0.219990000000     0.606380000000     0.0325846  
H84      H      0.666720000000     0.274230000000     0.846050000000     0.0462315  
H85      H      0.837450000000     0.185160000000     0.333830000000     0.0333728  
H86      H      0.746910000000     0.314870000000     0.107820000000     0.0341493  
H87      H      0.785400000000     0.201340000000     0.226460000000     0.0407816  
H88      H      0.755010000000     0.282070000000     0.238080000000     0.0405994  
H89      H      0.765840000000     0.296880000000     0.167620000000     0.0566584  
H90      H      0.773190000000     0.263660000000     0.299420000000     0.0409999  
H91      H      0.728570000000     0.233250000000     0.141720000000     0.0597725  
H92      H      0.820690000000     0.203830000000     0.271930000000     0.0556557  
H93      H      0.764440000000     0.232170000000     0.349260000000     0.0556708  
H94      H      0.767850000000     0.219990000000     0.164790000000     0.039827   
H95      H      0.781820000000     0.213500000000     0.410530000000     0.0329702  
H96      H      0.714870000000     0.232810000000     0.038710000000     0.0446547  
H97      H      0.712240000000     0.589540000000     0.913260000000     0.0326238  
H98      H      0.688370000000     0.398450000000     0.044490000000     0.0340153  
H99      H      0.691170000000     0.513170000000     0.913570000000     0.0405766  
H100     H      0.715110000000     0.473940000000     0.046190000000     0.0402758  
H101     H      0.688650000000     0.440270000000     0.043830000000     0.0563254  
H102     H      0.712970000000     0.516280000000     0.044090000000     0.040531   
H103     H      0.722290000000     0.439480000000     0.922010000000     0.0595255  
H104     H      0.716020000000     0.547560000000     0.915420000000     0.0551501  
H105     H      0.683840000000     0.547370000000     0.039120000000     0.0551654  
H106     H      0.693360000000     0.470910000000     0.915660000000     0.0399241  
H107     H      0.680780000000     0.589410000000     0.036220000000     0.0324158  
H108     H      0.710690000000     0.388530000000     0.875100000000     0.046496   
H109     H      0.198170000000     0.775040000000     0.566160000000     0.032993   
H110     H      0.326570000000     0.742500000000     0.856200000000     0.0339495  
H111     H      0.220010000000     0.757610000000     0.700710000000     0.0404385  
H112     H      0.307800000000     0.758970000000     0.718130000000     0.0404115  
H113     H      0.309610000000     0.762200000000     0.796270000000     0.0562143  
H114     H      0.289870000000     0.778670000000     0.657910000000     0.0406137  
H115     H      0.263820000000     0.703720000000     0.773580000000     0.0597051  
H116     H      0.216060000000     0.755080000000     0.625540000000     0.0552375  
H117     H      0.265860000000     0.811700000000     0.639680000000     0.0550324  
H118     H      0.238010000000     0.737670000000     0.760490000000     0.0397974  
H119     H      0.247960000000     0.830830000000     0.579450000000     0.0326021  
H120     H      0.257110000000     0.674650000000     0.864330000000     0.0453631  
H121     H      0.190660000000     0.809710000000     0.316250000000     0.033125   
H122     H      0.336150000000     0.721710000000     0.097700000000     0.0338491  
H123     H      0.234990000000     0.798110000000     0.196760000000     0.0404935  
H124     H      0.293970000000     0.735100000000     0.218730000000     0.0407398  
H125     H      0.320400000000     0.742440000000     0.157620000000     0.0565597  
H126     H      0.277010000000     0.754950000000     0.279710000000     0.0408747  
H127     H      0.250290000000     0.739150000000     0.103840000000     0.0595846  
H128     H      0.208120000000     0.791410000000     0.254650000000     0.0553178  
H129     H      0.276540000000     0.791540000000     0.316570000000     0.055355   
H130     H      0.251790000000     0.778040000000     0.135840000000     0.0398549  
H131     H      0.258320000000     0.809300000000     0.378070000000     0.03279    
H132     H      0.256470000000     0.733560000000     0.998980000000     0.0438041  
H133     H      0.413760000000     0.711000000000     0.918840000000     0.0332301  
H134     H      0.612400000000     0.693400000000     0.019390000000     0.0343708  
H135     H      0.490290000000     0.687810000000     0.897510000000     0.0405863  
H136     H      0.534050000000     0.676110000000     0.031600000000     0.0403224  
H137     H      0.569840000000     0.698270000000     0.019950000000     0.0564525  
H138     H      0.490810000000     0.679140000000     0.032890000000     0.0407326  
H139     H      0.564590000000     0.657790000000     0.906370000000     0.0595828  
H140     H      0.457010000000     0.711420000000     0.919090000000     0.0553617  
H141     H      0.456640000000     0.656870000000     0.012480000000     0.0556612  
H142     H      0.533620000000     0.685940000000     0.896500000000     0.0396718  
H143     H      0.413520000000     0.657370000000     0.012200000000     0.0334337  
H144     H      0.616990000000     0.661310000000     0.855510000000     0.0457758  
H145     H      0.343170000000     0.306740000000     0.821920000000     0.0333303  
H146     H      0.216350000000     0.250210000000     0.552380000000     0.0338785  
H147     H      0.309910000000     0.252360000000     0.737000000000     0.0406444  
H148     H      0.230030000000     0.275600000000     0.685450000000     0.0403432  
H149     H      0.234120000000     0.270680000000     0.610540000000     0.0562621  
H150     H      0.247380000000     0.295950000000     0.745330000000     0.0406083  
H151     H      0.261990000000     0.206300000000     0.658300000000     0.0595486  
H152     H      0.326490000000     0.288540000000     0.759640000000     0.0554104  
H153     H      0.257010000000     0.290070000000     0.818070000000     0.055505   
H154     H      0.293110000000     0.232880000000     0.675750000000     0.0396937  
H155     H      0.274210000000     0.308900000000     0.879310000000     0.0330706  
H156     H      0.266820000000     0.168970000000     0.577200000000     0.0455069  
H157     H      0.197800000000     0.238610000000     0.346500000000     0.0334038  
H158     H      0.302310000000     0.276770000000     0.044120000000     0.0342274  
H159     H      0.247920000000     0.285380000000     0.270830000000     0.0407808  
H160     H      0.296370000000     0.238900000000     0.170600000000     0.0403678  
H161     H      0.285020000000     0.257540000000     0.104200000000     0.0566288  
H162     H      0.277580000000     0.219700000000     0.230640000000     0.0409419  
H163     H      0.305260000000     0.314940000000     0.183160000000     0.0597098  
H164     H      0.216240000000     0.257700000000     0.286580000000     0.0557421  
H165     H      0.280200000000     0.217800000000     0.307530000000     0.0555587  
H166     H      0.266020000000     0.304420000000     0.210050000000     0.0399797  
H167     H      0.261070000000     0.198780000000     0.366930000000     0.0328229  
H168     H      0.310870000000     0.362220000000     0.122120000000     0.0466738  
H169     H      0.415500000000     0.294480000000     0.962920000000     0.0330239  
H170     H      0.616390000000     0.329040000000     0.922150000000     0.0329133  
H171     H      0.492100000000     0.292120000000     0.014580000000     0.0408505  
H172     H      0.541270000000     0.353580000000     0.947720000000     0.0402143  
H173     H      0.573620000000     0.330190000000     0.918860000000     0.0560966  
H174     H      0.498030000000     0.356450000000     0.945130000000     0.0409697  
H175     H      0.569620000000     0.307890000000     0.048000000000     0.0597943  
H176     H      0.458550000000     0.290350000000     0.965500000000     0.0554785  
H177     H      0.464740000000     0.363630000000     0.992390000000     0.0556314  
H178     H      0.535450000000     0.288810000000     0.015830000000     0.03969    
H179     H      0.421780000000     0.367190000000     0.988870000000     0.0332741  
H180     H      0.620070000000     0.278520000000     0.069050000000     0.0455668  
H181     H      0.300720000000     0.411450000000     0.010880000000     0.0325624  
H182     H      0.340930000000     0.603960000000     0.904090000000     0.0340428  
H183     H      0.319320000000     0.487710000000     0.023400000000     0.041239   
H184     H      0.308540000000     0.531410000000     0.889990000000     0.0400251  
H185     H      0.336980000000     0.562410000000     0.901630000000     0.0563998  
H186     H      0.308790000000     0.489010000000     0.888490000000     0.040551   
H187     H      0.294510000000     0.564150000000     0.014480000000     0.0595923  
H188     H      0.294650000000     0.453270000000     0.010420000000     0.0552531  
H189     H      0.338250000000     0.458220000000     0.898590000000     0.0555667  
H190     H      0.319190000000     0.530030000000     0.024900000000     0.040828   
H191     H      0.343660000000     0.416430000000     0.899680000000     0.0331513  
H192     H      0.269990000000     0.617200000000     0.021000000000     0.0450247  
N1       N      0.201280000000     0.912120000000     0.465270000000    -0.18302    
N2       N      0.203400000000     0.110250000000     0.462750000000    -0.180031   
N3       N      0.912370000000     0.818850000000     0.463150000000    -0.183269   
N4       N      0.115440000000     0.830440000000     0.466910000000    -0.17995    
N5       N      0.826730000000     0.894790000000     0.479240000000    -0.183229   
N6       N      0.828770000000     0.093110000000     0.483830000000    -0.180257   
N7       N      0.916890000000     0.174680000000     0.490840000000    -0.18359    
N8       N      0.119150000000     0.188950000000     0.471270000000    -0.180429   
N9       N      0.723670000000     0.698240000000     0.863180000000    -0.183505   
N10      N      0.804150000000     0.786230000000     0.573090000000    -0.179871   
N11      N      0.722750000000     0.697330000000     0.076770000000    -0.183206   
N12      N      0.803930000000     0.787080000000     0.364270000000    -0.180165   
N13      N      0.724300000000     0.285640000000     0.879110000000    -0.183354   
N14      N      0.810300000000     0.199000000000     0.592660000000    -0.180225   
N15      N      0.726680000000     0.284760000000     0.089420000000    -0.183437   
N16      N      0.810880000000     0.198000000000     0.376610000000    -0.18029    
N17      N      0.704480000000     0.394250000000     0.983300000000    -0.18342    
N18      N      0.696200000000     0.592490000000     0.974510000000    -0.18026    
N19      N      0.305040000000     0.711700000000     0.850640000000    -0.183213   
N20      N      0.221790000000     0.804330000000     0.568490000000    -0.180346   
N21      N      0.302630000000     0.718270000000     0.065390000000    -0.183921   
N22      N      0.223170000000     0.810680000000     0.351680000000    -0.180523   
N23      N      0.613680000000     0.673000000000     0.962490000000    -0.183226   
N24      N      0.410520000000     0.684130000000     0.965380000000    -0.179933   
N25      N      0.228900000000     0.216320000000     0.570570000000    -0.183093   
N26      N      0.309930000000     0.309050000000     0.855140000000    -0.180224   
N27      N      0.313640000000     0.307310000000     0.077880000000    -0.183224   
N28      N      0.228080000000     0.217320000000     0.361010000000    -0.180353   
N29      N      0.618320000000     0.317880000000     0.986860000000    -0.183516   
N30      N      0.415560000000     0.331130000000     0.975440000000    -0.18043    
N31      N      0.320650000000     0.608610000000     0.961170000000    -0.18344    
N32      N      0.322860000000     0.410980000000     0.955650000000    -0.180224   
O1       O      0.331970000000     0.337480000000     0.041580000000    -0.247376   
O2       O      0.306980000000     0.324950000000     0.921790000000    -0.250593   
O3       O      0.377770000000     0.316470000000     0.964780000000    -0.250325   
O4       O      0.319250000000     0.374950000000     0.986920000000    -0.248552   
O5       O      0.341260000000     0.377660000000     0.931670000000    -0.250321   
O6       O      0.381170000000     0.352950000000     0.977540000000    -0.251251   
O7       O      0.321490000000     0.307600000000     0.006200000000    -0.24948    
O8       O      0.341780000000     0.322630000000     0.893830000000    -0.249569   
O9       O      0.317730000000     0.645420000000     0.991050000000    -0.248506   
O10      O      0.374120000000     0.696540000000     0.940060000000    -0.246837   
O11      O      0.301010000000     0.698390000000     0.001720000000    -0.252156   
O12      O      0.309020000000     0.681990000000     0.899620000000    -0.24918    
O13      O      0.330510000000     0.712290000000     0.908030000000    -0.247763   
O14      O      0.335100000000     0.702780000000     0.030160000000    -0.25286    
O15      O      0.336380000000     0.642220000000     0.932490000000    -0.24968    
O16      O      0.374210000000     0.670170000000     0.988020000000    -0.250188   
O17      O      0.693400000000     0.293780000000     0.925590000000    -0.248588   
O18      O      0.721570000000     0.317100000000     0.046950000000    -0.250361   
O19      O      0.654630000000     0.323880000000     0.954090000000    -0.25119    
O20      O      0.707440000000     0.357400000000     0.953800000000    -0.248813   
O21      O      0.693460000000     0.360030000000     0.016310000000    -0.25026    
O22      O      0.655280000000     0.313840000000     0.018940000000    -0.247389   
O23      O      0.726610000000     0.311050000000     0.935610000000    -0.249359   
O24      O      0.701010000000     0.286960000000     0.032230000000    -0.250024   
O25      O      0.722640000000     0.672340000000     0.919330000000    -0.24817    
O26      O      0.696190000000     0.697630000000     0.020990000000    -0.248897   
O27      O      0.700750000000     0.627810000000     0.941030000000    -0.248106   
O28      O      0.650210000000     0.660580000000     0.936340000000    -0.250502   
O29      O      0.650110000000     0.679100000000     0.994770000000    -0.248133   
O30      O      0.685200000000     0.627820000000     0.003030000000    -0.25062    
O31      O      0.692100000000     0.693700000000     0.909480000000    -0.252461   
O32      O      0.717460000000     0.667210000000     0.028890000000    -0.249606   
O33      O      0.833800000000     0.128080000000     0.518210000000    -0.248729   
O34      O      0.878980000000     0.187450000000     0.473920000000    -0.248987   
O35      O      0.809230000000     0.173290000000     0.536840000000    -0.246531   
O36      O      0.811240000000     0.189490000000     0.447670000000    -0.251882   
O37      O      0.839470000000     0.175630000000     0.409460000000    -0.24733    
O38      O      0.841220000000     0.193230000000     0.545760000000    -0.25177    
O39      O      0.833980000000     0.128410000000     0.450510000000    -0.250999   
O40      O      0.881950000000     0.154270000000     0.503570000000    -0.251456   
O41      O      0.876520000000     0.817610000000     0.499120000000    -0.248783   
O42      O      0.830520000000     0.860770000000     0.440820000000    -0.247958   
O43      O      0.834930000000     0.792130000000     0.526020000000    -0.247419   
O44      O      0.831320000000     0.788990000000     0.418350000000    -0.252018   
O45      O      0.807160000000     0.817640000000     0.411090000000    -0.248071   
O46      O      0.803620000000     0.813290000000     0.519380000000    -0.249661   
O47      O      0.874960000000     0.821620000000     0.432260000000    -0.249624   
O48      O      0.831170000000     0.857910000000     0.507940000000    -0.249925   
O49      O      0.153440000000     0.816130000000     0.456630000000    -0.245555   
O50      O      0.194450000000     0.876440000000     0.497270000000    -0.244185   
O51      O      0.190960000000     0.825050000000     0.388660000000    -0.250169   
O52      O      0.194010000000     0.807010000000     0.515130000000    -0.25127    
O53      O      0.219740000000     0.834420000000     0.520640000000    -0.248636   
O54      O      0.224740000000     0.824070000000     0.420220000000    -0.25318    
O55      O      0.149790000000     0.852060000000     0.473770000000    -0.251374   
O56      O      0.198930000000     0.876840000000     0.430270000000    -0.251365   
O57      O      0.202380000000     0.146160000000     0.430410000000    -0.2488     
O58      O      0.156630000000     0.193330000000     0.499920000000    -0.250889   
O59      O      0.228110000000     0.191300000000     0.416350000000    -0.251405   
O60      O      0.205090000000     0.217020000000     0.511070000000    -0.250101   
O61      O      0.220490000000     0.184410000000     0.528210000000    -0.246351   
O62      O      0.196310000000     0.211230000000     0.405850000000    -0.250104   
O63      O      0.197100000000     0.144940000000     0.497490000000    -0.247606   
O64      O      0.154230000000     0.180720000000     0.436370000000    -0.250891   
S1       S      0.197890000000     0.913010000000     0.553150000000    -0.0246296  
S2       S      0.912320000000     0.822900000000     0.375440000000    -0.0260512  
S3       S      0.823290000000     0.892450000000     0.566960000000    -0.0266952  
S4       S      0.922350000000     0.132390000000     0.532930000000    -0.0264733  
S5       S      0.764310000000     0.670840000000     0.873060000000    -0.025918   
S6       S      0.753230000000     0.659410000000     0.086840000000    -0.0264243  
S7       S      0.682590000000     0.260140000000     0.866590000000    -0.0276497  
S8       S      0.702330000000     0.243810000000     0.070010000000    -0.0266182  
S9       S      0.727610000000     0.392260000000     0.905440000000    -0.027104   
S10      S      0.276110000000     0.672890000000     0.837350000000    -0.0269493  
S11      S      0.257710000000     0.715960000000     0.027990000000    -0.0279577  
S12      S      0.611690000000     0.646800000000     0.888450000000    -0.0275298  
S13      S      0.246510000000     0.173860000000     0.599520000000    -0.0249544  
S14      S      0.327590000000     0.345110000000     0.127230000000    -0.0264204  
S15      S      0.617200000000     0.302160000000     0.070090000000    -0.024973   
S16      S      0.292530000000     0.611350000000     0.033620000000    -0.0255623  


