data_structure

_audit_creation_method RASPA-1.0
_audit_creation_date 2023-5-22
_audit_author_name 'Poobodin Mano'

_cell_length_a    44.8574
_cell_length_b    46.7801
_cell_length_c    46.4516
_cell_angle_alpha 90
_cell_angle_beta  90
_cell_angle_gamma 90
_cell_volume      97475.6

_symmetry_cell_setting          triclinic
_symmetry_space_group_name_Hall 'P 1'
_symmetry_space_group_name_H-M  'P 1'
_symmetry_Int_Tables_number     1

_symmetry_equiv_pos_as_xyz 'x,y,z'

loop_
_atom_site_label
_atom_site_type_symbol
_atom_site_fract_x
_atom_site_fract_y
_atom_site_fract_z
_atom_site_charge
C1       C      0.917790000000     0.389960000000     0.896660000000     0.348315   
C2       C      0.846410000000     0.396790000000     0.821140000000     0.350945   
C3       C      0.919110000000     0.325450000000     0.818590000000     0.348749   
C4       C      0.842810000000     0.320360000000     0.889220000000     0.349829   
C5       C      0.091080000000     0.568830000000     0.076630000000     0.347915   
C6       C      0.090500000000     0.639490000000     0.151300000000     0.349206   
C7       C      0.160410000000     0.566330000000     0.150230000000     0.347524   
C8       C      0.163670000000     0.641450000000     0.078030000000     0.347707   
C9       C      0.338790000000     0.827330000000     0.906980000000     0.347939   
C10      C      0.412620000000     0.822980000000     0.832090000000     0.348972   
C11      C      0.343740000000     0.899700000000     0.833490000000     0.348653   
C12      C      0.416800000000     0.895080000000     0.902280000000     0.346723   
C13      C      0.672360000000     0.142780000000     0.073130000000     0.34852    
C14      C      0.594600000000     0.074460000000     0.077690000000     0.348061   
C15      C      0.671340000000     0.075490000000     0.146980000000     0.349737   
C16      C      0.597290000000     0.148070000000     0.146370000000     0.348686   
C17      C      0.345890000000     0.394890000000     0.326500000000     0.347924   
C18      C      0.424120000000     0.397410000000     0.396720000000     0.3509     
C19      C      0.348520000000     0.325280000000     0.398420000000     0.348158   
C20      C      0.425010000000     0.326620000000     0.327840000000     0.34918    
C21      C      0.664040000000     0.578780000000     0.652920000000     0.346471   
C22      C      0.593470000000     0.653570000000     0.649850000000     0.349335   
C23      C      0.666240000000     0.649870000000     0.578760000000     0.350754   
C24      C      0.594430000000     0.578260000000     0.577680000000     0.346225   
C25      C      0.915510000000     0.823810000000     0.324250000000     0.346731   
C26      C      0.850200000000     0.896030000000     0.321440000000     0.347276   
C27      C      0.844540000000     0.826310000000     0.400490000000     0.348645   
C28      C      0.915460000000     0.892730000000     0.404010000000     0.347768   
C29      C      0.097030000000     0.144790000000     0.644560000000     0.349249   
C30      C      0.170380000000     0.072290000000     0.647510000000     0.347432   
C31      C      0.098510000000     0.072830000000     0.573710000000     0.347107   
C32      C      0.174820000000     0.143750000000     0.575790000000     0.348395   
C33      C      0.938140000000     0.947930000000     0.456540000000    -0.0549991  
C34      C      0.093520000000     0.034080000000     0.540910000000     0.0736753  
C35      C      0.050700000000     0.059730000000     0.556000000000     0.0735507  
C36      C      0.075900000000     0.016070000000     0.523990000000    -0.0882406  
C37      C      0.031490000000     0.971140000000     0.504340000000    -0.0313842  
C38      C      0.013240000000     0.953030000000     0.488150000000    -0.0354347  
C39      C      0.025720000000     0.000670000000     0.505580000000    -0.00460702 
C40      C      0.032420000000     0.042110000000     0.539340000000    -0.0881414  
C41      C      0.988730000000     0.964000000000     0.472860000000     0.00225754 
C42      C      0.981170000000     0.922680000000     0.439270000000    -0.0794209  
C43      C      0.983000000000     0.993520000000     0.474010000000    -0.0354146  
C44      C      0.962490000000     0.905050000000     0.423140000000     0.0700035  
C45      C      0.919640000000     0.929450000000     0.440720000000     0.028478   
C46      C      0.001280000000     0.011640000000     0.490150000000    -0.0309466  
C47      C      0.044920000000     0.019880000000     0.523110000000     0.0514013  
C48      C      0.969130000000     0.944730000000     0.455840000000     0.0398362  
C49      C      0.887100000000     0.931930000000     0.446100000000     0.292515   
C50      C      0.731210000000     0.677720000000     0.538560000000    -0.0556965  
C51      C      0.797620000000     0.816440000000     0.422240000000     0.0755022  
C52      C      0.839020000000     0.786310000000     0.431540000000     0.0752126  
C53      C      0.779490000000     0.799530000000     0.439830000000    -0.0876674  
C54      C      0.743040000000     0.750350000000     0.464440000000    -0.0311967  
C55      C      0.725560000000     0.732630000000     0.481850000000    -0.0347286  
C56      C      0.772520000000     0.757020000000     0.472280000000    -0.0040782  
C57      C      0.821550000000     0.768950000000     0.449230000000    -0.0878998  
C58      C      0.737190000000     0.721120000000     0.507440000000     0.00222735 
C59      C      0.689070000000     0.708660000000     0.531830000000    -0.0794369  
C60      C      0.766570000000     0.727980000000     0.515390000000    -0.0345135  
C61      C      0.672420000000     0.691050000000     0.549950000000     0.0713446  
C62      C      0.714240000000     0.660540000000     0.557210000000     0.0290984  
C63      C      0.784010000000     0.745720000000     0.498040000000    -0.0307765  
C64      C      0.791390000000     0.775410000000     0.453570000000     0.0522109  
C65      C      0.718800000000     0.702090000000     0.525920000000     0.0407228  
C66      C      0.730580000000     0.637600000000     0.572670000000     0.293011   
C67      C      0.228820000000     0.199290000000     0.553760000000    -0.0556577  
C68      C      0.312370000000     0.288390000000     0.403380000000     0.0739553  
C69      C      0.333110000000     0.310070000000     0.444930000000     0.0741125  
C70      C      0.295010000000     0.270350000000     0.420520000000    -0.0882631  
C71      C      0.249160000000     0.246180000000     0.462240000000    -0.0316117  
C72      C      0.232350000000     0.228080000000     0.479880000000    -0.035052   
C73      C      0.278870000000     0.252800000000     0.469230000000    -0.00439275 
C74      C      0.316090000000     0.292370000000     0.462710000000    -0.0880214  
C75      C      0.244870000000     0.216210000000     0.504920000000     0.00188338 
C76      C      0.208680000000     0.175970000000     0.512020000000    -0.0799201  
C77      C      0.274610000000     0.222730000000     0.511820000000    -0.034984   
C78      C      0.192330000000     0.158000000000     0.530040000000     0.0692742  
C79      C      0.212670000000     0.180570000000     0.571550000000     0.0282499  
C80      C      0.291410000000     0.240790000000     0.494200000000    -0.0312557  
C81      C      0.296800000000     0.272110000000     0.450590000000     0.0514796  
C82      C      0.227010000000     0.197070000000     0.523790000000     0.0398674  
C83      C      0.219380000000     0.182030000000     0.602830000000     0.290918   
C84      C      0.485320000000     0.422690000000     0.443600000000    -0.0560979  
C85      C      0.553980000000     0.546180000000     0.570670000000     0.0739     
C86      C      0.585570000000     0.558000000000     0.531510000000     0.0738419  
C87      C      0.537050000000     0.528300000000     0.552990000000    -0.0882562  
C88      C      0.495620000000     0.505260000000     0.506720000000    -0.0315291  
C89      C      0.479040000000     0.487280000000     0.488800000000    -0.0349334  
C90      C      0.526900000000     0.506050000000     0.504800000000    -0.00439858 
C91      C      0.569150000000     0.540270000000     0.513230000000    -0.0879976  
C92      C      0.493350000000     0.469620000000     0.468590000000     0.00187057 
C93      C      0.449610000000     0.460240000000     0.436410000000    -0.0801056  
C94      C      0.524620000000     0.470420000000     0.466660000000    -0.034735   
C95      C      0.433460000000     0.442190000000     0.418330000000     0.0704238  
C96      C      0.469090000000     0.405040000000     0.424800000000     0.0311286  
C97      C      0.541190000000     0.488430000000     0.484540000000    -0.0310568  
C98      C      0.544560000000     0.525130000000     0.523890000000     0.0515738  
C99      C      0.475730000000     0.450530000000     0.449480000000     0.0406407  
C100     C      0.483250000000     0.377420000000     0.416990000000     0.287833   
C101     C      0.828710000000     0.957110000000     0.275410000000    -0.0552114  
C102     C      0.686230000000     0.059040000000     0.193240000000     0.0748616  
C103     C      0.709940000000     0.040970000000     0.151410000000     0.0759516  
C104     C      0.704050000000     0.041750000000     0.210710000000    -0.0880526  
C105     C      0.732350000000     0.990690000000     0.240500000000    -0.0314399  
C106     C      0.750190000000     0.972850000000     0.257400000000    -0.0347666  
C107     C      0.744350000000     0.004880000000     0.216460000000    -0.00418596 
C108     C      0.728110000000     0.023400000000     0.168220000000    -0.0879021  
C109     C      0.780460000000     0.968800000000     0.250690000000     0.00210638 
C110     C      0.788460000000     0.923390000000     0.278240000000    -0.0797469  
C111     C      0.792470000000     0.983050000000     0.226700000000    -0.0347444  
C112     C      0.806410000000     0.905630000000     0.294980000000     0.0698205  
C113     C      0.846690000000     0.938590000000     0.291730000000     0.0285495  
C114     C      0.774640000000     0.000880000000     0.209800000000    -0.0309601  
C115     C      0.725300000000     0.023600000000     0.198260000000     0.0520857  
C116     C      0.799370000000     0.949630000000     0.268540000000     0.0401564  
C117     C      0.878600000000     0.946630000000     0.294470000000     0.29204    
C118     C      0.483730000000     0.303930000000     0.276860000000    -0.0560383  
C119     C      0.556730000000     0.154820000000     0.178630000000     0.0738686  
C120     C      0.586870000000     0.194270000000     0.165190000000     0.0740195  
C121     C      0.539450000000     0.172390000000     0.196300000000    -0.0883792  
C122     C      0.497110000000     0.217790000000     0.219210000000    -0.031637   
C123     C      0.480450000000     0.235470000000     0.237370000000    -0.0349986  
C124     C      0.528300000000     0.220480000000     0.217720000000    -0.00441121 
C125     C      0.570090000000     0.212440000000     0.182700000000    -0.0881034  
C126     C      0.494590000000     0.256230000000     0.254470000000     0.00193245 
C127     C      0.453640000000     0.263670000000     0.290390000000    -0.0800054  
C128     C      0.525770000000     0.258920000000     0.252970000000    -0.034811   
C129     C      0.437430000000     0.281380000000     0.308760000000     0.0701523  
C130     C      0.467580000000     0.321290000000     0.295990000000     0.031094   
C131     C      0.542420000000     0.241270000000     0.234790000000    -0.0310989  
C132     C      0.546090000000     0.201560000000     0.198600000000     0.0516136  
C133     C      0.476920000000     0.274900000000     0.273960000000     0.0405494  
C134     C      0.479120000000     0.350720000000     0.300320000000     0.288039   
C135     C      0.293060000000     0.957360000000     0.809670000000    -0.055639   
C136     C      0.175160000000     0.030720000000     0.676630000000     0.0738451  
C137     C      0.215470000000     0.063310000000     0.672810000000     0.0738599  
C138     C      0.191700000000     0.013470000000     0.695290000000    -0.08818    
C139     C      0.238840000000     0.973610000000     0.720320000000    -0.0315913  
C140     C      0.256020000000     0.956830000000     0.738890000000    -0.0350614  
C141     C      0.238580000000     0.003530000000     0.723050000000    -0.00438668 
C142     C      0.232550000000     0.046660000000     0.691520000000    -0.0874979  
C143     C      0.273170000000     0.969610000000     0.760710000000     0.00182405 
C144     C      0.309330000000     0.929750000000     0.769020000000    -0.080157   
C145     C      0.272710000000     0.999510000000     0.763590000000    -0.034939   
C146     C      0.327090000000     0.913450000000     0.787350000000     0.0697686  
C147     C      0.311530000000     0.941010000000     0.827740000000     0.0286491  
C148     C      0.255660000000     0.016290000000     0.744930000000    -0.0312414  
C149     C      0.220720000000     0.021420000000     0.703040000000     0.0514391  
C150     C      0.291850000000     0.951830000000     0.780110000000     0.0400695  
C151     C      0.314420000000     0.951020000000     0.857960000000     0.291228   
C152     C      0.570640000000     0.706610000000     0.704430000000    -0.0557961  
C153     C      0.416970000000     0.784540000000     0.798780000000     0.0741522  
C154     C      0.459900000000     0.810580000000     0.812850000000     0.0750757  
C155     C      0.434150000000     0.767570000000     0.780380000000    -0.0877945  
C156     C      0.478110000000     0.725350000000     0.754540000000    -0.0312365  
C157     C      0.496060000000     0.708990000000     0.736250000000    -0.0350948  
C158     C      0.483720000000     0.754710000000     0.758430000000    -0.00415773 
C159     C      0.477760000000     0.793880000000     0.794930000000    -0.08725    
C160     C      0.520170000000     0.721560000000     0.721690000000     0.00187243 
C161     C      0.527390000000     0.685780000000     0.682280000000    -0.0803757  
C162     C      0.525700000000     0.750860000000     0.725390000000    -0.0350923  
C163     C      0.546050000000     0.670010000000     0.664280000000     0.0697562  
C164     C      0.589050000000     0.690800000000     0.685870000000     0.0285283  
C165     C      0.507610000000     0.767270000000     0.743410000000    -0.030926   
C166     C      0.464960000000     0.772190000000     0.778170000000     0.0516927  
C167     C      0.539640000000     0.704190000000     0.702730000000     0.0401184  
C168     C      0.621370000000     0.697720000000     0.686620000000     0.290815   
C169     C      0.474540000000     0.918380000000     0.953950000000    -0.0548391  
C170     C      0.554630000000     0.068760000000     0.044520000000     0.073908   
C171     C      0.580680000000     0.028100000000     0.061730000000     0.0740612  
C172     C      0.536580000000     0.051430000000     0.027310000000    -0.0884655  
C173     C      0.491670000000     0.007620000000     0.005380000000    -0.031168   
C174     C      0.474480000000     0.989800000000     0.987820000000    -0.0348777  
C175     C      0.522480000000     0.002980000000     0.008400000000    -0.00451782 
C176     C      0.563100000000     0.010160000000     0.044760000000    -0.0884582  
C177     C      0.487730000000     0.966960000000     0.972870000000     0.00245718 
C178     C      0.447680000000     0.959080000000     0.936090000000    -0.078137   
C179     C      0.518580000000     0.962460000000     0.975760000000    -0.0349893  
C180     C      0.431120000000     0.940910000000     0.918460000000     0.0707213  
C181     C      0.458130000000     0.900520000000     0.935540000000     0.0299963  
C182     C      0.535730000000     0.980240000000     0.993330000000    -0.0310524  
C183     C      0.540840000000     0.021760000000     0.027130000000     0.0517692  
C184     C      0.469540000000     0.947880000000     0.954270000000     0.0403965  
C185     C      0.467970000000     0.870250000000     0.933950000000     0.292838   
C186     C      0.029210000000     0.664850000000     0.198000000000    -0.0558328  
C187     C      0.957910000000     0.815840000000     0.294540000000     0.0744334  
C188     C      0.922210000000     0.779000000000     0.301050000000     0.0742385  
C189     C      0.975040000000     0.798020000000     0.276960000000    -0.0876775  
C190     C      0.997490000000     0.760140000000     0.228080000000    -0.0315144  
C191     C      0.014740000000     0.741650000000     0.211290000000    -0.0347258  
C192     C      0.983980000000     0.750400000000     0.253560000000    -0.00423814 
C193     C      0.938850000000     0.760600000000     0.283690000000    -0.0881005  
C194     C      0.018960000000     0.713030000000     0.219660000000     0.00195517 
C195     C      0.064260000000     0.702770000000     0.189800000000    -0.0798943  
C196     C      0.005500000000     0.703370000000     0.245210000000    -0.0347149  
C197     C      0.081690000000     0.684000000000     0.173680000000     0.0701141  
C198     C      0.047490000000     0.646060000000     0.182340000000     0.0297483  
C199     C      0.988180000000     0.721810000000     0.261920000000    -0.0311268  
C200     C      0.965690000000     0.769970000000     0.271510000000     0.0517784  
C201     C      0.037550000000     0.693390000000     0.202000000000     0.0404199  
C202     C      0.038860000000     0.615430000000     0.182910000000     0.289346   
C203     C      0.311600000000     0.786990000000     0.970100000000    -0.0552181  
C204     C      0.172060000000     0.665780000000     0.033830000000     0.0734145  
C205     C      0.206680000000     0.670570000000     0.072110000000     0.0737133  
C206     C      0.189030000000     0.684120000000     0.016660000000    -0.088427   
C207     C      0.238590000000     0.710490000000     0.980500000000    -0.0316043  
C208     C      0.255650000000     0.729300000000     0.963880000000    -0.034935   
C209     C      0.233350000000     0.716110000000     0.009790000000    -0.00452283 
C210     C      0.224100000000     0.689090000000     0.055580000000    -0.0883589  
C211     C      0.267780000000     0.754190000000     0.976170000000     0.00211325 
C212     C      0.277970000000     0.780880000000     0.930370000000    -0.0795582  
C213     C      0.262350000000     0.759870000000     0.005440000000    -0.0349267  
C214     C      0.295490000000     0.799500000000     0.914130000000     0.0699406  
C215     C      0.328510000000     0.806270000000     0.953650000000     0.0285987  
C216     C      0.245400000000     0.741020000000     0.022060000000    -0.0311659  
C217     C      0.215310000000     0.696140000000     0.027520000000     0.0515213  
C218     C      0.286120000000     0.774120000000     0.958580000000     0.0400372  
C219     C      0.352580000000     0.821760000000     0.969120000000     0.29251    
C220     C      0.186570000000     0.525280000000     0.213420000000    -0.0554242  
C221     C      0.334410000000     0.415520000000     0.281060000000     0.0738729  
C222     C      0.302200000000     0.423120000000     0.320820000000     0.0738673  
C223     C      0.316170000000     0.432310000000     0.263520000000    -0.0880863  
C224     C      0.282900000000     0.482860000000     0.237500000000    -0.0316066  
C225     C      0.264420000000     0.499750000000     0.220250000000    -0.0347705  
C226     C      0.270650000000     0.462640000000     0.256490000000    -0.0044282  
C227     C      0.283340000000     0.439870000000     0.303830000000    -0.0883342  
C228     C      0.233250000000     0.496700000000     0.221480000000     0.00200281 
C229     C      0.221310000000     0.520360000000     0.174420000000    -0.0798597  
C230     C      0.221030000000     0.476390000000     0.240450000000    -0.0348644  
C231     C      0.202650000000     0.537050000000     0.157280000000     0.0699116  
C232     C      0.167670000000     0.541380000000     0.195550000000     0.028865   
C233     C      0.239510000000     0.459620000000     0.257810000000    -0.0312908  
C234     C      0.290290000000     0.444720000000     0.274830000000     0.0515665  
C235     C      0.213570000000     0.514530000000     0.202940000000     0.0401762  
C236     C      0.137850000000     0.548400000000     0.207490000000     0.291438   
C237     C      0.953800000000     0.294670000000     0.753420000000    -0.0555882  
C238     C      0.077190000000     0.157860000000     0.690150000000     0.0742396  
C239     C      0.063250000000     0.183780000000     0.648400000000     0.0746618  
C240     C      0.059390000000     0.175480000000     0.707280000000    -0.0880838  
C241     C      0.007630000000     0.206050000000     0.735840000000    -0.0314269  
C242     C      0.990340000000     0.224180000000     0.752960000000    -0.0349049  
C243     C      0.024340000000     0.217010000000     0.712710000000    -0.00428148 
C244     C      0.045160000000     0.201760000000     0.664880000000    -0.0880254  
C245     C      0.989250000000     0.253670000000     0.747280000000     0.00214065 
C246     C      0.971660000000     0.270390000000     0.795570000000    -0.0797696  
C247     C      0.005820000000     0.264630000000     0.724100000000    -0.0349339  
C248     C      0.954800000000     0.288870000000     0.812570000000     0.0704055  
C249     C      0.937390000000     0.313430000000     0.770940000000     0.0296527  
C250     C      0.023190000000     0.246520000000     0.707040000000    -0.0308644  
C251     C      0.043110000000     0.197810000000     0.694730000000     0.0517783  
C252     C      0.971110000000     0.272990000000     0.765650000000     0.0403925  
C253     C      0.923090000000     0.338050000000     0.756210000000     0.289816   
C254     C      0.734380000000     0.186650000000     0.044900000000    -0.0553298  
C255     C      0.802030000000     0.313490000000     0.921180000000     0.075486   
C256     C      0.831570000000     0.273910000000     0.906930000000     0.0754132  
C257     C      0.784770000000     0.295880000000     0.938840000000    -0.0879602  
C258     C      0.742610000000     0.250810000000     0.962660000000    -0.0314456  
C259     C      0.726300000000     0.233240000000     0.981210000000    -0.0348478  
C260     C      0.773690000000     0.247720000000     0.960200000000    -0.00424311 
C261     C      0.814770000000     0.255690000000     0.924360000000    -0.0880282  
C262     C      0.740690000000     0.212210000000     0.997790000000     0.00201168 
C263     C      0.696070000000     0.182010000000     0.009110000000    -0.0799138  
C264     C      0.771740000000     0.209060000000     0.995250000000    -0.0348232  
C265     C      0.680150000000     0.164460000000     0.027860000000     0.069456   
C266     C      0.718330000000     0.168370000000     0.063240000000     0.0281317  
C267     C      0.788050000000     0.226610000000     0.976690000000    -0.0309441  
C268     C      0.791170000000     0.266630000000     0.940780000000     0.0521789  
C269     C      0.723370000000     0.193570000000     0.017610000000     0.0399823  
C270     C      0.733790000000     0.159200000000     0.089950000000     0.291434   
C271     C      0.820650000000     0.461050000000     0.782040000000    -0.0558075  
C272     C      0.671480000000     0.534800000000     0.677600000000     0.07409    
C273     C      0.708150000000     0.571230000000     0.680180000000     0.0747313  
C274     C      0.688990000000     0.516870000000     0.694730000000    -0.0878343  
C275     C      0.723970000000     0.489870000000     0.743910000000    -0.0313095  
C276     C      0.742270000000     0.471950000000     0.760290000000    -0.0347367  
C277     C      0.736170000000     0.507260000000     0.722210000000    -0.00411625 
C278     C      0.726220000000     0.553870000000     0.697300000000    -0.0879704  
C279     C      0.773180000000     0.471020000000     0.755330000000     0.0021003  
C280     C      0.783910000000     0.423870000000     0.778720000000    -0.0799298  
C281     C      0.785340000000     0.488360000000     0.733590000000    -0.034601   
C282     C      0.802730000000     0.405920000000     0.794330000000     0.0709526  
C283     C      0.839590000000     0.442430000000     0.797170000000     0.030559   
C284     C      0.767070000000     0.506270000000     0.717240000000    -0.0308619  
C285     C      0.716820000000     0.526260000000     0.704650000000     0.0520357  
C286     C      0.792680000000     0.451830000000     0.772540000000     0.0407986  
C287     C      0.870310000000     0.452930000000     0.802650000000     0.289477   
C288     C      0.946510000000     0.424190000000     0.962790000000    -0.0551005  
C289     C      0.049300000000     0.562360000000     0.045770000000     0.0750794  
C290     C      0.081790000000     0.523510000000     0.055340000000     0.074988   
C291     C      0.031720000000     0.545040000000     0.028090000000    -0.0879688  
C292     C      0.009670000000     0.507310000000     0.979020000000    -0.0313071  
C293     C      0.992640000000     0.489390000000     0.961430000000    -0.034613   
C294     C      0.020800000000     0.497410000000     0.005500000000    -0.00421655 
C295     C      0.064680000000     0.505590000000     0.037910000000    -0.0880482  
C296     C      0.986230000000     0.461230000000     0.970000000000     0.0022196  
C297     C      0.973790000000     0.440880000000     0.921620000000    -0.0792365  
C298     C      0.997220000000     0.451400000000     0.996550000000    -0.034658   
C299     C      0.957150000000     0.422560000000     0.904270000000     0.070748   
C300     C      0.930370000000     0.405430000000     0.945020000000     0.0288178  
C301     C      0.014330000000     0.469270000000     0.014080000000    -0.0308938  
C302     C      0.039280000000     0.516260000000     0.024040000000     0.052143   
C303     C      0.968410000000     0.442060000000     0.951190000000     0.0404264  
C304     C      0.910590000000     0.384680000000     0.959870000000     0.291586   
Cd1      Cd     0.880980000000     0.358160000000     0.856580000000     0.517144   
Cd2      Cd     0.126920000000     0.604750000000     0.113540000000     0.513899   
Cd3      Cd     0.377020000000     0.859820000000     0.868510000000     0.515191   
Cd4      Cd     0.633550000000     0.110740000000     0.111170000000     0.512103   
Cd5      Cd     0.385300000000     0.361330000000     0.362480000000     0.513676   
Cd6      Cd     0.628910000000     0.614820000000     0.615190000000     0.513623   
Cd7      Cd     0.881370000000     0.860100000000     0.362420000000     0.51461    
Cd8      Cd     0.135170000000     0.108540000000     0.610140000000     0.51151    
H1       H      0.040100000000     0.076550000000     0.568370000000     0.0346776  
H2       H      0.973140000000     0.888880000000     0.409940000000     0.0380145  
H3       H      0.996470000000     0.034320000000     0.490250000000     0.0428465  
H4       H      0.018010000000     0.930330000000     0.488050000000     0.0435593  
H5       H      0.005050000000     0.919450000000     0.438110000000     0.0559099  
H6       H      0.049820000000     0.961900000000     0.516330000000     0.0419618  
H7       H      0.928310000000     0.964010000000     0.470430000000     0.0607377  
H8       H      0.008560000000     0.045630000000     0.539620000000     0.0576922  
H9       H      0.086580000000     0.999430000000     0.511480000000     0.0571346  
H10      H      0.964560000000     0.002690000000     0.462130000000     0.0469807  
H11      H      0.117390000000     0.030390000000     0.541020000000     0.034777   
H12      H      0.853090000000     0.960220000000     0.450760000000     0.189644   
H13      H      0.862210000000     0.780440000000     0.428660000000     0.0356804  
H14      H      0.649340000000     0.696970000000     0.553540000000     0.0385964  
H15      H      0.806420000000     0.750840000000     0.505000000000     0.0435386  
H16      H      0.703100000000     0.727510000000     0.475000000000     0.0439295  
H17      H      0.678730000000     0.727570000000     0.522810000000     0.0567689  
H18      H      0.733630000000     0.758390000000     0.444550000000     0.0424286  
H19      H      0.754380000000     0.672450000000     0.534540000000     0.0599256  
H20      H      0.831600000000     0.750310000000     0.459080000000     0.0583419  
H21      H      0.756390000000     0.805540000000     0.442860000000     0.0580909  
H22      H      0.776000000000     0.719930000000     0.535270000000     0.0458015  
H23      H      0.787590000000     0.834920000000     0.412010000000     0.0362726  
H24      H      0.739970000000     0.621390000000     0.612240000000     0.189577   
H25      H      0.347750000000     0.325440000000     0.455200000000     0.0357275  
H26      H      0.178010000000     0.142360000000     0.519740000000     0.0364663  
H27      H      0.314390000000     0.245010000000     0.499940000000     0.0429756  
H28      H      0.209390000000     0.223740000000     0.474140000000     0.043659   
H29      H      0.207070000000     0.173160000000     0.488930000000     0.05562    
H30      H      0.238700000000     0.255360000000     0.443370000000     0.0420534  
H31      H      0.243340000000     0.215190000000     0.563340000000     0.0604104  
H32      H      0.317860000000     0.294790000000     0.485830000000     0.0580878  
H33      H      0.280660000000     0.254790000000     0.410220000000     0.0571094  
H34      H      0.285110000000     0.213520000000     0.530660000000     0.0448095  
H35      H      0.310480000000     0.286200000000     0.380210000000     0.0344438  
H36      H      0.225220000000     0.209250000000     0.636430000000     0.188438   
H37      H      0.604390000000     0.569390000000     0.522410000000     0.0356415  
H38      H      0.413060000000     0.450710000000     0.409180000000     0.0369907  
H39      H      0.565260000000     0.488320000000     0.482690000000     0.0432578  
H40      H      0.455000000000     0.487000000000     0.490970000000     0.0436142  
H41      H      0.441680000000     0.481830000000     0.439950000000     0.0560674  
H42      H      0.483890000000     0.518780000000     0.521890000000     0.0420575  
H43      H      0.505830000000     0.414890000000     0.453160000000     0.061112   
H44      H      0.575510000000     0.538740000000     0.490790000000     0.0581086  
H45      H      0.518460000000     0.516720000000     0.562230000000     0.057589   
H46      H      0.536320000000     0.457350000000     0.451070000000     0.0454845  
H47      H      0.547500000000     0.547940000000     0.593090000000     0.0351132  
H48      H      0.504250000000     0.342530000000     0.433290000000     0.18985    
H49      H      0.712740000000     0.040070000000     0.128240000000     0.0377752  
H50      H      0.796530000000     0.885820000000     0.302460000000     0.0375645  
H51      H      0.784680000000     0.011720000000     0.191620000000     0.0435431  
H52      H      0.740310000000     0.962390000000     0.275880000000     0.044012   
H53      H      0.766100000000     0.916470000000     0.272880000000     0.0559603  
H54      H      0.709040000000     0.993050000000     0.246060000000     0.0422601  
H55      H      0.837840000000     0.977120000000     0.267600000000     0.0609789  
H56      H      0.743940000000     0.009440000000     0.157640000000     0.0585319  
H57      H      0.701390000000     0.042890000000     0.233860000000     0.0580043  
H58      H      0.815610000000     0.980140000000     0.220710000000     0.0449288  
H59      H      0.670080000000     0.072810000000     0.203720000000     0.0348601  
H60      H      0.906690000000     0.979620000000     0.302980000000     0.189462   
H61      H      0.605260000000     0.203530000000     0.153250000000     0.0357998  
H62      H      0.419230000000     0.271620000000     0.320580000000     0.0370944  
H63      H      0.566440000000     0.243580000000     0.234520000000     0.0432796  
H64      H      0.456440000000     0.233110000000     0.237750000000     0.0435478  
H65      H      0.448000000000     0.241190000000     0.289250000000     0.0558069  
H66      H      0.485520000000     0.202260000000     0.206040000000     0.0420556  
H67      H      0.502060000000     0.312980000000     0.264660000000     0.0609543  
H68      H      0.575750000000     0.234930000000     0.183530000000     0.0583022  
H69      H      0.521310000000     0.163020000000     0.208460000000     0.05724    
H70      H      0.537420000000     0.274340000000     0.266230000000     0.0454686  
H71      H      0.550990000000     0.132330000000     0.177600000000     0.0344358  
H72      H      0.494090000000     0.386110000000     0.279510000000     0.189668   
H73      H      0.225470000000     0.082670000000     0.664350000000     0.0397841  
H74      H      0.339770000000     0.896220000000     0.777640000000     0.0366987  
H75      H      0.255700000000     0.039270000000     0.747760000000     0.0432175  
H76      H      0.255760000000     0.933830000000     0.736270000000     0.0437791  
H77      H      0.309480000000     0.925130000000     0.746170000000     0.0559635  
H78      H      0.226100000000     0.963160000000     0.703530000000     0.0421614  
H79      H      0.280130000000     0.974850000000     0.818570000000     0.0607572  
H80      H      0.255040000000     0.053380000000     0.696660000000     0.0587001  
H81      H      0.181610000000     0.994260000000     0.703920000000     0.0576116  
H82      H      0.285920000000     0.010010000000     0.780000000000     0.0449342  
H83      H      0.152720000000     0.023940000000     0.671310000000     0.034445   
H84      H      0.291060000000     0.965220000000     0.892590000000     0.189284   
H85      H      0.470730000000     0.827190000000     0.825340000000     0.0400904  
H86      H      0.535420000000     0.655620000000     0.649110000000     0.0364558  
H87      H      0.512220000000     0.789910000000     0.745330000000     0.0428712  
H88      H      0.491460000000     0.686370000000     0.733940000000     0.0441255  
H89      H      0.503450000000     0.683690000000     0.680040000000     0.0559465  
H90      H      0.460190000000     0.714850000000     0.766030000000     0.0421344  
H91      H      0.580470000000     0.721340000000     0.719770000000     0.0613647  
H92      H      0.501530000000     0.797880000000     0.794450000000     0.0590149  
H93      H      0.423190000000     0.751300000000     0.767620000000     0.0569074  
H94      H      0.543830000000     0.761210000000     0.714030000000     0.0453402  
H95      H      0.393190000000     0.780450000000     0.799730000000     0.0343369  
H96      H      0.656340000000     0.705470000000     0.713300000000     0.189744   
H97      H      0.597720000000     0.018260000000     0.075000000000     0.0348299  
H98      H      0.414060000000     0.950700000000     0.905170000000     0.0442679  
H99      H      0.559490000000     0.976410000000     0.994770000000     0.0429401  
H100     H      0.450720000000     0.993630000000     0.986300000000     0.0449365  
H101     H      0.443460000000     0.981860000000     0.935270000000     0.0572981  
H102     H      0.480730000000     0.024760000000     0.016970000000     0.0424071  
H103     H      0.491740000000     0.909290000000     0.967580000000     0.0604167  
H104     H      0.566840000000     0.987300000000     0.045630000000     0.0579486  
H105     H      0.519810000000     0.061300000000     0.013800000000     0.0574646  
H106     H      0.529600000000     0.945420000000     0.964100000000     0.0449696  
H107     H      0.550850000000     0.091650000000     0.043840000000     0.0344922  
H108     H      0.479560000000     0.835750000000     0.958020000000     0.189706   
H109     H      0.901600000000     0.770890000000     0.310110000000     0.0352322  
H110     H      0.101920000000     0.692610000000     0.164260000000     0.0368283  
H111     H      0.978480000000     0.713790000000     0.281690000000     0.0431105  
H112     H      0.024480000000     0.749680000000     0.191550000000     0.0437755  
H113     H      0.071890000000     0.724530000000     0.192830000000     0.0558835  
H114     H      0.994380000000     0.781960000000     0.220890000000     0.0429521  
H115     H      0.008800000000     0.656970000000     0.207670000000     0.060585   
H116     H      0.930590000000     0.739200000000     0.279700000000     0.0581923  
H117     H      0.995790000000     0.806030000000     0.268170000000     0.0581477  
H118     H      0.008760000000     0.681640000000     0.252620000000     0.0450102  
H119     H      0.966040000000     0.837310000000     0.298480000000     0.03729    
H120     H      0.004040000000     0.588080000000     0.178090000000     0.190225   
H121     H      0.214240000000     0.665660000000     0.093720000000     0.0350599  
H122     H      0.288510000000     0.803460000000     0.892130000000     0.0373557  
H123     H      0.241340000000     0.746200000000     0.044450000000     0.0428679  
H124     H      0.259730000000     0.724090000000     0.941510000000     0.0436159  
H125     H      0.258050000000     0.771890000000     0.920790000000     0.0558273  
H126     H      0.229910000000     0.691300000000     0.970510000000     0.0422299  
H127     H      0.318050000000     0.782460000000     0.992140000000     0.0606011  
H128     H      0.244470000000     0.697630000000     0.064680000000     0.0579957  
H129     H      0.181280000000     0.689220000000     0.995180000000     0.0573353  
H130     H      0.270850000000     0.779110000000     0.015470000000     0.0449711  
H131     H      0.151730000000     0.657100000000     0.024700000000     0.0343552  
H132     H      0.387230000000     0.816810000000     0.996830000000     0.191752   
H133     H      0.296150000000     0.420020000000     0.343200000000     0.0344904  
H134     H      0.210100000000     0.541350000000     0.135490000000     0.0371697  
H135     H      0.229430000000     0.443930000000     0.271930000000     0.042796   
H136     H      0.274560000000     0.515470000000     0.206210000000     0.0437277  
H137     H      0.241680000000     0.511970000000     0.165200000000     0.0557308  
H138     H      0.306800000000     0.485950000000     0.236290000000     0.0428448  
H139     H      0.179870000000     0.520680000000     0.235360000000     0.0603528  
H140     H      0.263690000000     0.449300000000     0.313490000000     0.057963   
H141     H      0.322150000000     0.435260000000     0.241120000000     0.0579757  
H142     H      0.197170000000     0.473070000000     0.241570000000     0.0448635  
H143     H      0.354210000000     0.406250000000     0.271460000000     0.0363885  
H144     H      0.116410000000     0.564230000000     0.242560000000     0.193076   
H145     H      0.064220000000     0.187570000000     0.625390000000     0.0353685  
H146     H      0.955600000000     0.285530000000     0.835670000000     0.0384056  
H147     H      0.036170000000     0.255770000000     0.689730000000     0.0431578  
H148     H      0.977520000000     0.215060000000     0.770460000000     0.0440223  
H149     H      0.985220000000     0.254210000000     0.805920000000     0.0564109  
H150     H      0.007610000000     0.183380000000     0.740540000000     0.0422073  
H151     H      0.953590000000     0.297400000000     0.730230000000     0.0611561  
H152     H      0.032650000000     0.218470000000     0.654190000000     0.0580928  
H153     H      0.058820000000     0.171860000000     0.730300000000     0.0574558  
H154     H      0.005820000000     0.287320000000     0.719460000000     0.0455542  
H155     H      0.089540000000     0.140940000000     0.700740000000     0.0347952  
H156     H      0.898220000000     0.349470000000     0.721520000000     0.190249   
H157     H      0.849750000000     0.264630000000     0.894700000000     0.0355462  
H158     H      0.658790000000     0.156560000000     0.020340000000     0.0369027  
H159     H      0.811990000000     0.223860000000     0.975570000000     0.0435284  
H160     H      0.702430000000     0.236350000000     0.982830000000     0.0437311  
H161     H      0.687010000000     0.186360000000     0.987940000000     0.0557752  
H162     H      0.730820000000     0.266670000000     0.950050000000     0.0421609  
H163     H      0.755810000000     0.194980000000     0.051730000000     0.0607269  
H164     H      0.820200000000     0.233140000000     0.924840000000     0.0580368  
H165     H      0.766940000000     0.305310000000     0.951370000000     0.0583357  
H166     H      0.783480000000     0.192840000000     0.007420000000     0.0449906  
H167     H      0.796570000000     0.336060000000     0.920560000000     0.0363043  
H168     H      0.758200000000     0.173350000000     0.123910000000     0.188784   
H169     H      0.716320000000     0.592410000000     0.674900000000     0.0362373  
H170     H      0.794570000000     0.384570000000     0.798930000000     0.0375201  
H171     H      0.777120000000     0.518990000000     0.700350000000     0.043528   
H172     H      0.732260000000     0.459090000000     0.777090000000     0.0439748  
H173     H      0.762660000000     0.415700000000     0.771310000000     0.0562939  
H174     H      0.700310000000     0.490400000000     0.748520000000     0.0425604  
H175     H      0.828090000000     0.482540000000     0.777050000000     0.0610076  
H176     H      0.747360000000     0.562160000000     0.704850000000     0.0586094  
H177     H      0.680980000000     0.495580000000     0.699650000000     0.0575938  
H178     H      0.808970000000     0.487750000000     0.728840000000     0.045656   
H179     H      0.650220000000     0.526660000000     0.670120000000     0.0347259  
H180     H      0.894290000000     0.486830000000     0.817140000000     0.18881    
H181     H      0.101310000000     0.514420000000     0.065640000000     0.0362478  
H182     H      0.961870000000     0.422940000000     0.881370000000     0.0409024  
H183     H      0.022320000000     0.461090000000     0.034490000000     0.0436724  
H184     H      0.984300000000     0.497650000000     0.941190000000     0.0446522  
H185     H      0.990970000000     0.453960000000     0.911860000000     0.0570407  
H186     H      0.014490000000     0.528790000000     0.971680000000     0.0426231  
H187     H      0.942410000000     0.424380000000     0.985800000000     0.061106   
H188     H      0.071550000000     0.483570000000     0.035060000000     0.0583005  
H189     H      0.012100000000     0.554070000000     0.018010000000     0.0587235  
H190     H      0.992960000000     0.429720000000     0.003630000000     0.0452913  
H191     H      0.042630000000     0.584470000000     0.048480000000     0.0363673  
H192     H      0.879240000000     0.380640000000     0.991160000000     0.188563   
N1       N      0.932070000000     0.908800000000     0.422970000000    -0.163852   
N2       N      0.080990000000     0.055650000000     0.556860000000    -0.179753   
N3       N      0.684500000000     0.666940000000     0.562270000000    -0.163359   
N4       N      0.827110000000     0.809810000000     0.418100000000    -0.17908    
N5       N      0.193550000000     0.160560000000     0.559520000000    -0.164589   
N6       N      0.331340000000     0.308000000000     0.415510000000    -0.179648   
N7       N      0.442510000000     0.414610000000     0.412950000000    -0.164628   
N8       N      0.578050000000     0.560880000000     0.560000000000    -0.179466   
N9       N      0.834970000000     0.913310000000     0.302480000000    -0.164117   
N10      N      0.689130000000     0.058590000000     0.163840000000    -0.179311   
N11      N      0.443650000000     0.310080000000     0.311180000000    -0.164159   
N12      N      0.580310000000     0.165680000000     0.163290000000    -0.179921   
N13      N      0.327760000000     0.918340000000     0.816550000000    -0.164342   
N14      N      0.186970000000     0.055450000000     0.665540000000    -0.179215   
N15      N      0.576570000000     0.671740000000     0.666420000000    -0.165067   
N16      N      0.429750000000     0.806020000000     0.814670000000    -0.179419   
N17      N      0.435640000000     0.911830000000     0.918490000000    -0.162375   
N18      N      0.576620000000     0.057170000000     0.061440000000    -0.180043   
N19      N      0.073290000000     0.656060000000     0.169300000000    -0.164353   
N20      N      0.931790000000     0.806320000000     0.306590000000    -0.179228   
N21      N      0.321020000000     0.811530000000     0.925170000000    -0.164254   
N22      N      0.180790000000     0.659150000000     0.061350000000    -0.180092   
N23      N      0.176380000000     0.548130000000     0.167700000000    -0.164059   
N24      N      0.327520000000     0.411080000000     0.309500000000    -0.179781   
N25      N      0.937150000000     0.309760000000     0.800580000000    -0.164224   
N26      N      0.079180000000     0.162070000000     0.660970000000    -0.179826   
N27      N      0.690580000000     0.158160000000     0.054980000000    -0.164398   
N28      N      0.825410000000     0.302620000000     0.905580000000    -0.179275   
N29      N      0.830070000000     0.415060000000     0.804090000000    -0.164311   
N30      N      0.681100000000     0.561680000000     0.670270000000    -0.179314   
N31      N      0.935080000000     0.405460000000     0.915510000000    -0.163761   
N32      N      0.074110000000     0.551640000000     0.059280000000    -0.179148   
O1       O      0.868690000000     0.404990000000     0.835660000000    -0.232054   
O2       O      0.865020000000     0.311210000000     0.875110000000    -0.246904   
O3       O      0.924660000000     0.387220000000     0.870340000000    -0.238435   
O4       O      0.897610000000     0.340380000000     0.809420000000    -0.231577   
O5       O      0.922230000000     0.324970000000     0.845720000000    -0.241361   
O6       O      0.893390000000     0.378530000000     0.903980000000    -0.232915   
O7       O      0.839520000000     0.370660000000     0.824030000000    -0.244051   
O8       O      0.838050000000     0.347020000000     0.887750000000    -0.243698   
O9       O      0.081870000000     0.615560000000     0.141740000000    -0.22821    
O10      O      0.171090000000     0.634640000000     0.103430000000    -0.247735   
O11      O      0.084560000000     0.594830000000     0.081110000000    -0.241953   
O12      O      0.138780000000     0.581110000000     0.159370000000    -0.229658   
O13      O      0.167120000000     0.570190000000     0.124000000000    -0.243648   
O14      O      0.114220000000     0.559670000000     0.089250000000    -0.245624   
O15      O      0.115780000000     0.647720000000     0.142360000000    -0.247783   
O16      O      0.139290000000     0.631080000000     0.069100000000    -0.251352   
O17      O      0.384900000000     0.818910000000     0.835370000000    -0.248857   
O18      O      0.398750000000     0.905740000000     0.884210000000    -0.235804   
O19      O      0.330330000000     0.834650000000     0.882030000000    -0.246504   
O20      O      0.361920000000     0.881870000000     0.822760000000    -0.248438   
O21      O      0.340490000000     0.898320000000     0.860550000000    -0.228641   
O22      O      0.365110000000     0.834440000000     0.913400000000    -0.230788   
O23      O      0.423540000000     0.843920000000     0.845730000000    -0.24271    
O24      O      0.415490000000     0.868210000000     0.905070000000    -0.221703   
O25      O      0.591870000000     0.101430000000     0.077730000000    -0.247107   
O26      O      0.592080000000     0.121540000000     0.144290000000    -0.248968   
O27      O      0.677180000000     0.140710000000     0.099880000000    -0.232547   
O28      O      0.673460000000     0.075660000000     0.119780000000    -0.241177   
O29      O      0.651640000000     0.091810000000     0.157600000000    -0.248124   
O30      O      0.648840000000     0.130640000000     0.064260000000    -0.247723   
O31      O      0.615250000000     0.064470000000     0.093330000000    -0.249007   
O32      O      0.619280000000     0.157290000000     0.131990000000    -0.248473   
O33      O      0.401890000000     0.407310000000     0.383150000000    -0.2476     
O34      O      0.405340000000     0.315690000000     0.344060000000    -0.245258   
O35      O      0.369150000000     0.383040000000     0.316680000000    -0.246237   
O36      O      0.366470000000     0.343430000000     0.408910000000    -0.247825   
O37      O      0.347570000000     0.323950000000     0.371180000000    -0.247017   
O38      O      0.340790000000     0.391000000000     0.353030000000    -0.249394   
O39      O      0.427490000000     0.370620000000     0.395100000000    -0.230487   
O40      O      0.425430000000     0.353640000000     0.327210000000    -0.22805    
O41      O      0.620480000000     0.648150000000     0.655410000000    -0.234551   
O42      O      0.616830000000     0.592160000000     0.568650000000    -0.248409   
O43      O      0.639140000000     0.570710000000     0.642980000000    -0.248828   
O44      O      0.640640000000     0.658070000000     0.586930000000    -0.24323    
O45      O      0.673520000000     0.624850000000     0.586370000000    -0.230436   
O46      O      0.672380000000     0.603560000000     0.645540000000    -0.239032   
O47      O      0.582600000000     0.640170000000     0.628600000000    -0.246623   
O48      O      0.588130000000     0.581400000000     0.604090000000    -0.243862   
O49      O      0.873820000000     0.903930000000     0.334000000000    -0.231607   
O50      O      0.888590000000     0.898490000000     0.398060000000    -0.231478   
O51      O      0.891290000000     0.815720000000     0.335650000000    -0.247873   
O52      O      0.871800000000     0.820690000000     0.396160000000    -0.246849   
O53      O      0.834340000000     0.847930000000     0.387300000000    -0.242456   
O54      O      0.923880000000     0.848930000000     0.330450000000    -0.242102   
O55      O      0.840650000000     0.871530000000     0.328560000000    -0.24564    
O56      O      0.926620000000     0.872000000000     0.390120000000    -0.24425    
O57      O      0.180650000000     0.095080000000     0.636660000000    -0.241441   
O58      O      0.160550000000     0.122930000000     0.565070000000    -0.247744   
O59      O      0.111780000000     0.124350000000     0.655390000000    -0.249432   
O60      O      0.087670000000     0.092940000000     0.588710000000    -0.249275   
O61      O      0.126490000000     0.069440000000     0.575470000000    -0.245819   
O62      O      0.099930000000     0.148360000000     0.617650000000    -0.24606    
O63      O      0.143750000000     0.066170000000     0.640840000000    -0.247926   
O64      O      0.169740000000     0.148610000000     0.602110000000    -0.232749   
O65      O      0.874140000000     0.957980000000     0.446810000000    -0.327314   
O66      O      0.872270000000     0.910600000000     0.451240000000    -0.213367   
O67      O      0.729230000000     0.635950000000     0.601680000000    -0.308399   
O68      O      0.746340000000     0.620940000000     0.559270000000    -0.227409   
O69      O      0.220390000000     0.207650000000     0.616190000000    -0.327979   
O70      O      0.225390000000     0.160280000000     0.616210000000    -0.211007   
O71      O      0.494440000000     0.360390000000     0.437830000000    -0.326007   
O72      O      0.486140000000     0.370710000000     0.391710000000    -0.198603   
O73      O      0.886070000000     0.973700000000     0.301540000000    -0.326539   
O74      O      0.898110000000     0.929220000000     0.288990000000    -0.212526   
O75      O      0.486040000000     0.367040000000     0.277290000000    -0.32593    
O76      O      0.483780000000     0.359710000000     0.324620000000    -0.198404   
O77      O      0.289780000000     0.958170000000     0.873040000000    -0.327338   
O78      O      0.339050000000     0.954130000000     0.868760000000    -0.210566   
O79      O      0.635430000000     0.700500000000     0.712180000000    -0.327499   
O80      O      0.634970000000     0.702230000000     0.664270000000    -0.209917   
O81      O      0.472670000000     0.855350000000     0.958430000000    -0.326226   
O82      O      0.473230000000     0.859220000000     0.910640000000    -0.210718   
O83      O      0.010380000000     0.607840000000     0.177370000000    -0.326425   
O84      O      0.057050000000     0.597200000000     0.189750000000    -0.203183   
O85      O      0.371660000000     0.807180000000     0.986160000000    -0.326881   
O86      O      0.354320000000     0.847790000000     0.967560000000    -0.209193   
O87      O      0.135600000000     0.559870000000     0.234080000000    -0.325813   
O88      O      0.115300000000     0.542570000000     0.193930000000    -0.203016   
O89      O      0.907340000000     0.333750000000     0.731810000000    -0.326516   
O90      O      0.926710000000     0.362330000000     0.765290000000    -0.204312   
O91      O      0.747530000000     0.178810000000     0.106660000000    -0.327488   
O92      O      0.735380000000     0.133840000000     0.096140000000    -0.212826   
O93      O      0.874500000000     0.479270000000     0.813820000000    -0.326426   
O94      O      0.891810000000     0.438400000000     0.795780000000    -0.203544   
O95      O      0.892000000000     0.393790000000     0.980820000000    -0.326881   
O96      O      0.912090000000     0.359200000000     0.954180000000    -0.212939   


