data_structure

_audit_creation_method RASPA-1.0
_audit_creation_date 2023-6-5
_audit_author_name 'Poobodin Mano'

_cell_length_a    56.5246
_cell_length_b    56.3279
_cell_length_c    32.1241
_cell_angle_alpha 90.0319
_cell_angle_beta  89.9202
_cell_angle_gamma 89.9999
_cell_volume      102280

_symmetry_cell_setting          triclinic
_symmetry_space_group_name_Hall 'P 1'
_symmetry_space_group_name_H-M  'P 1'
_symmetry_Int_Tables_number     1

_symmetry_equiv_pos_as_xyz 'x,y,z'

loop_
_atom_site_label
_atom_site_type_symbol
_atom_site_fract_x
_atom_site_fract_y
_atom_site_fract_z
_atom_site_charge
Br1      Br     0.135620000000     0.110100000000     0.471480000000    -0.210905   
Br2      Br     0.907620000000     0.781580000000     0.500590000000    -0.209561   
Br3      Br     0.846310000000     0.112460000000     0.373580000000    -0.211328   
Br4      Br     0.903150000000     0.253120000000     0.456430000000    -0.210861   
Br5      Br     0.722040000000     0.773530000000     0.910720000000    -0.21123    
Br6      Br     0.835960000000     0.839770000000     0.303210000000    -0.210174   
Br7      Br     0.676490000000     0.325940000000     0.797740000000    -0.210471   
Br8      Br     0.677110000000     0.270980000000     0.065080000000    -0.21235    
Br9      Br     0.747150000000     0.622310000000     0.939830000000    -0.20976    
Br10     Br     0.257660000000     0.694190000000     0.879980000000    -0.205222   
Br11     Br     0.277490000000     0.670910000000     0.084320000000    -0.205426   
Br12     Br     0.406010000000     0.742150000000     0.007730000000    -0.211639   
Br13     Br     0.198950000000     0.173020000000     0.629720000000    -0.208591   
Br14     Br     0.345080000000     0.323510000000     0.131820000000    -0.210813   
Br15     Br     0.411030000000     0.353900000000     0.882680000000    -0.205411   
Br16     Br     0.308560000000     0.406510000000     0.884360000000    -0.204924   
C1       C      0.386690000000     0.325840000000     0.960390000000     0.357049   
C2       C      0.316290000000     0.312390000000     0.045900000000     0.354822   
C3       C      0.328130000000     0.383670000000     0.971040000000     0.356194   
C4       C      0.313180000000     0.308680000000     0.902290000000     0.349508   
C5       C      0.333200000000     0.634710000000     0.965840000000     0.350665   
C6       C      0.314430000000     0.705830000000     0.035660000000     0.355013   
C7       C      0.387750000000     0.693720000000     0.962110000000     0.355494   
C8       C      0.313880000000     0.706110000000     0.890030000000     0.356748   
C9       C      0.636160000000     0.332200000000     0.962430000000     0.351387   
C10      C      0.708040000000     0.321040000000     0.882420000000     0.355821   
C11      C      0.693950000000     0.390970000000     0.958400000000     0.347359   
C12      C      0.707850000000     0.314940000000     0.026630000000     0.355632   
C13      C      0.694580000000     0.642020000000     0.964290000000     0.354846   
C14      C      0.707740000000     0.718040000000     0.895150000000     0.357717   
C15      C      0.637820000000     0.700430000000     0.966200000000     0.34819    
C16      C      0.711070000000     0.711630000000     0.040510000000     0.348901   
C17      C      0.812890000000     0.212890000000     0.529440000000     0.351293   
C18      C      0.826030000000     0.140120000000     0.455610000000     0.356861   
C19      C      0.813760000000     0.210550000000     0.381340000000     0.348555   
C20      C      0.884580000000     0.198190000000     0.457940000000     0.355468   
C21      C      0.815260000000     0.821620000000     0.540650000000     0.345856   
C22      C      0.888160000000     0.831300000000     0.461050000000     0.354707   
C23      C      0.820240000000     0.816070000000     0.391670000000     0.356624   
C24      C      0.828100000000     0.889920000000     0.472430000000     0.348666   
C25      C      0.138160000000     0.829650000000     0.461380000000     0.347248   
C26      C      0.212150000000     0.811850000000     0.393110000000     0.346877   
C27      C      0.193890000000     0.885890000000     0.460930000000     0.347785   
C28      C      0.210920000000     0.812140000000     0.533820000000     0.347749   
C29      C      0.207620000000     0.208940000000     0.399560000000     0.346945   
C30      C      0.186740000000     0.137030000000     0.467910000000     0.357957   
C31      C      0.205580000000     0.206110000000     0.547050000000     0.356688   
C32      C      0.134310000000     0.199670000000     0.465990000000     0.35254    
C33      C      0.169690000000     0.073710000000     0.465310000000    -0.125686   
C34      C      0.200700000000     0.922540000000     0.495760000000     0.074056   
C35      C      0.191540000000     0.922280000000     0.423760000000     0.0739655  
C36      C      0.201400000000     0.947340000000     0.495810000000    -0.0872779  
C37      C      0.212590000000     0.999600000000     0.482440000000    -0.0335592  
C38      C      0.211400000000     0.024410000000     0.483330000000    -0.0286956  
C39      C      0.196280000000     0.986350000000     0.458930000000    -0.00179946 
C40      C      0.192180000000     0.947050000000     0.422660000000    -0.0877067  
C41      C      0.193850000000     0.036520000000     0.460740000000    -0.00897847 
C42      C      0.211970000000     0.077260000000     0.462730000000    -0.097445   
C43      C      0.177810000000     0.023270000000     0.436730000000    -0.0288528  
C44      C      0.209600000000     0.101910000000     0.464630000000     0.0822175  
C45      C      0.167700000000     0.098460000000     0.467140000000     0.191692   
C46      C      0.178970000000     0.998520000000     0.435910000000    -0.0331329  
C47      C      0.196880000000     0.959940000000     0.459050000000     0.0511901  
C48      C      0.191870000000     0.062830000000     0.462870000000     0.0717135  
C49      C      0.948320000000     0.806510000000     0.474230000000    -0.125206   
C50      C      0.102760000000     0.819090000000     0.425920000000     0.0741686  
C51      C      0.100890000000     0.834080000000     0.494840000000     0.0742122  
C52      C      0.078120000000     0.817340000000     0.424480000000    -0.0873653  
C53      C      0.025950000000     0.830520000000     0.421910000000    -0.0333928  
C54      C      0.001230000000     0.830620000000     0.421310000000    -0.0288173  
C55      C      0.038260000000     0.823180000000     0.457650000000    -0.0017792  
C56      C      0.076240000000     0.832510000000     0.494490000000    -0.0875123  
C57      C      0.988230000000     0.823320000000     0.456390000000    -0.00889825 
C58      C      0.950350000000     0.844220000000     0.439670000000    -0.0975097  
C59      C      0.000540000000     0.815530000000     0.491850000000    -0.028648   
C60      C      0.925770000000     0.845660000000     0.441320000000     0.0820079  
C61      C      0.923580000000     0.808290000000     0.475430000000     0.190494   
C62      C      0.025270000000     0.815490000000     0.492490000000    -0.033095   
C63      C      0.064520000000     0.824180000000     0.458960000000     0.0514123  
C64      C      0.961970000000     0.824590000000     0.456530000000     0.0714525  
C65      C      0.828790000000     0.076660000000     0.426650000000    -0.125774   
C66      C      0.838860000000     0.928030000000     0.497860000000     0.0751505  
C67      C      0.806800000000     0.924180000000     0.450840000000     0.0756681  
C68      C      0.836380000000     0.952680000000     0.497860000000    -0.0870253  
C69      C      0.820980000000     0.003920000000     0.506500000000    -0.03372    
C70      C      0.820870000000     0.028680000000     0.503540000000    -0.0287582  
C71      C      0.816960000000     0.989760000000     0.471140000000    -0.00130337 
C72      C      0.803730000000     0.948790000000     0.450290000000    -0.08661    
C73      C      0.816640000000     0.039890000000     0.465160000000    -0.00906642 
C74      C      0.809590000000     0.081020000000     0.492870000000    -0.0980612  
C75      C      0.811910000000     0.025740000000     0.430070000000    -0.0284274  
C76      C      0.812210000000     0.105580000000     0.489570000000     0.0807529  
C77      C      0.831140000000     0.101360000000     0.423870000000     0.190354   
C78      C      0.812140000000     0.000990000000     0.432990000000    -0.0328916  
C79      C      0.818820000000     0.963430000000     0.473520000000     0.0516828  
C80      C      0.818130000000     0.066190000000     0.461400000000     0.0711774  
C81      C      0.944440000000     0.224870000000     0.457540000000    -0.125272   
C82      C      0.098950000000     0.201530000000     0.426260000000     0.0783556  
C83      C      0.097610000000     0.208250000000     0.499100000000     0.0779123  
C84      C      0.074380000000     0.203460000000     0.423780000000    -0.0867309  
C85      C      0.022700000000     0.190840000000     0.433490000000    -0.03266    
C86      C      0.998020000000     0.190110000000     0.433070000000    -0.0281431  
C87      C      0.034730000000     0.207490000000     0.458290000000    -0.000884051
C88      C      0.072980000000     0.210250000000     0.497750000000    -0.0859118  
C89      C      0.984720000000     0.205960000000     0.457490000000    -0.00875681 
C90      C      0.947250000000     0.182370000000     0.459140000000    -0.0974535  
C91      C      0.996710000000     0.222860000000     0.481840000000    -0.0282092  
C92      C      0.922650000000     0.181040000000     0.459230000000     0.0819919  
C93      C      0.919680000000     0.223130000000     0.457600000000     0.190495   
C94      C      0.021450000000     0.223580000000     0.482300000000    -0.0328784  
C95      C      0.061020000000     0.207430000000     0.459880000000     0.0531664  
C96      C      0.958470000000     0.204430000000     0.458100000000     0.071719   
C97      C      0.735180000000     0.763610000000     0.827750000000    -0.125645   
C98      C      0.780400000000     0.812480000000     0.578910000000     0.0746739  
C99      C      0.818040000000     0.803390000000     0.607220000000     0.0754931  
C100     C      0.769220000000     0.802870000000     0.613840000000    -0.0872048  
C101     C      0.750940000000     0.768230000000     0.678870000000    -0.0333563  
C102     C      0.740190000000     0.757970000000     0.713680000000    -0.0285551  
C103     C      0.771140000000     0.782570000000     0.683310000000    -0.00130347 
C104     C      0.807440000000     0.793690000000     0.642640000000    -0.0862255  
C105     C      0.749340000000     0.761870000000     0.753780000000    -0.00893314 
C106     C      0.730160000000     0.727330000000     0.789590000000    -0.0974426  
C107     C      0.769480000000     0.776310000000     0.758240000000    -0.0281177  
C108     C      0.719980000000     0.717090000000     0.824830000000     0.0823456  
C109     C      0.724850000000     0.753000000000     0.862780000000     0.19091    
C110     C      0.780270000000     0.786510000000     0.723410000000    -0.0329057  
C111     C      0.782740000000     0.793230000000     0.646210000000     0.0517345  
C112     C      0.738040000000     0.750810000000     0.790800000000     0.0718536  
C113     C      0.805210000000     0.802110000000     0.282400000000    -0.125655   
C114     C      0.710950000000     0.737900000000     0.098440000000     0.0770056  
C115     C      0.743890000000     0.712680000000     0.086730000000     0.0764881  
C116     C      0.721840000000     0.747510000000     0.133590000000    -0.0867316  
C117     C      0.743720000000     0.754190000000     0.219300000000    -0.0335749  
C118     C      0.754880000000     0.764430000000     0.253700000000    -0.0285077  
C119     C      0.756350000000     0.750060000000     0.182280000000    -0.00114755 
C120     C      0.755370000000     0.722030000000     0.121560000000    -0.0863411  
C121     C      0.778870000000     0.770900000000     0.251730000000    -0.00914571 
C122     C      0.786740000000     0.774010000000     0.328230000000    -0.0980786  
C123     C      0.791540000000     0.766640000000     0.214800000000    -0.0279716  
C124     C      0.797310000000     0.785400000000     0.361950000000     0.081762   
C125     C      0.815560000000     0.813370000000     0.316760000000     0.190789   
C126     C      0.780420000000     0.756250000000     0.180480000000    -0.0326658  
C127     C      0.744360000000     0.739670000000     0.145440000000     0.0525268  
C128     C      0.790490000000     0.782420000000     0.287910000000     0.0718467  
C129     C      0.717880000000     0.301450000000     0.773880000000    -0.125785   
C130     C      0.814610000000     0.223070000000     0.601220000000     0.0759616  
C131     C      0.781580000000     0.234740000000     0.560670000000     0.075723   
C132     C      0.804880000000     0.233960000000     0.636370000000    -0.0870991  
C133     C      0.773420000000     0.246490000000     0.710020000000    -0.0334132  
C134     C      0.763100000000     0.257380000000     0.744670000000    -0.0286397  
C135     C      0.772360000000     0.257300000000     0.670620000000    -0.00148537 
C136     C      0.771350000000     0.245810000000     0.595160000000    -0.0873107  
C137     C      0.751470000000     0.279330000000     0.740720000000    -0.00909593 
C138     C      0.751160000000     0.290700000000     0.816190000000    -0.0980527  
C139     C      0.750570000000     0.290220000000     0.701390000000    -0.028476   
C140     C      0.740040000000     0.301160000000     0.850350000000     0.0812118  
C141     C      0.707010000000     0.311840000000     0.808620000000     0.190669   
C142     C      0.760900000000     0.279330000000     0.666760000000    -0.0329525  
C143     C      0.783010000000     0.245560000000     0.633620000000     0.0521216  
C144     C      0.740070000000     0.290680000000     0.777390000000     0.0715996  
C145     C      0.718210000000     0.273910000000     0.114610000000    -0.125634   
C146     C      0.815430000000     0.237960000000     0.325150000000     0.076053   
C147     C      0.782880000000     0.211620000000     0.331210000000     0.0764477  
C148     C      0.805610000000     0.248040000000     0.289410000000    -0.0861896  
C149     C      0.773410000000     0.275260000000     0.230750000000    -0.0335713  
C150     C      0.762840000000     0.285450000000     0.195770000000    -0.028454   
C151     C      0.772960000000     0.250540000000     0.236670000000    -0.00111599 
C152     C      0.772590000000     0.221260000000     0.295520000000    -0.0866072  
C153     C      0.751580000000     0.271170000000     0.165850000000    -0.00918145 
C154     C      0.750820000000     0.300920000000     0.107910000000    -0.098217   
C155     C      0.751220000000     0.246430000000     0.171670000000    -0.0283403  
C156     C      0.739630000000     0.311270000000     0.073810000000     0.0809618  
C157     C      0.707270000000     0.284570000000     0.080240000000     0.190089   
C158     C      0.761790000000     0.236240000000     0.206680000000    -0.0330503  
C159     C      0.783900000000     0.239760000000     0.274230000000     0.0521601  
C160     C      0.740100000000     0.282090000000     0.128910000000     0.0713787  
C161     C      0.719250000000     0.581440000000     0.953570000000    -0.125333   
C162     C      0.700010000000     0.426730000000     0.996220000000     0.0746501  
C163     C      0.695700000000     0.427950000000     0.922840000000     0.0744896  
C164     C      0.701850000000     0.451430000000     0.997740000000    -0.0873139  
C165     C      0.688950000000     0.503540000000     0.994050000000    -0.0337426  
C166     C      0.688740000000     0.528330000000     0.994640000000    -0.0289609  
C167     C      0.700900000000     0.491170000000     0.962360000000    -0.001503   
C168     C      0.697440000000     0.452690000000     0.923240000000    -0.0866208  
C169     C      0.700440000000     0.541380000000     0.963520000000    -0.00921107 
C170     C      0.678300000000     0.579470000000     0.973100000000    -0.0984254  
C171     C      0.712690000000     0.529030000000     0.932130000000    -0.0284875  
C172     C      0.677430000000     0.604170000000     0.973040000000     0.0803142  
C173     C      0.717970000000     0.606320000000     0.953690000000     0.189656   
C174     C      0.712900000000     0.504210000000     0.931540000000    -0.033214   
C175     C      0.700310000000     0.464780000000     0.961050000000     0.051365   
C176     C      0.699360000000     0.567760000000     0.963420000000     0.070918   
C177     C      0.269280000000     0.723350000000     0.811530000000    -0.12511    
C178     C      0.244420000000     0.805570000000     0.577080000000     0.0740042  
C179     C      0.207820000000     0.787100000000     0.593100000000     0.0743905  
C180     C      0.254920000000     0.795130000000     0.611910000000    -0.0876363  
C181     C      0.275000000000     0.759410000000     0.673810000000    -0.0337036  
C182     C      0.284990000000     0.748890000000     0.709050000000    -0.0288688  
C183     C      0.252260000000     0.769450000000     0.675590000000    -0.00186042 
C184     C      0.217720000000     0.776490000000     0.628280000000    -0.0876115  
C185     C      0.272510000000     0.748250000000     0.746950000000    -0.00887819 
C186     C      0.307090000000     0.739810000000     0.793540000000    -0.097468   
C187     C      0.249800000000     0.758420000000     0.748730000000    -0.0285823  
C188     C      0.316720000000     0.729170000000     0.828850000000     0.081024   
C189     C      0.279310000000     0.712870000000     0.846910000000     0.190031   
C190     C      0.239780000000     0.768840000000     0.713460000000    -0.0331281  
C191     C      0.241520000000     0.780470000000     0.638100000000     0.0514673  
C192     C      0.283100000000     0.737010000000     0.784470000000     0.0711159  
C193     C      0.278420000000     0.713360000000     0.130970000000    -0.124843   
C194     C      0.238960000000     0.813510000000     0.336100000000     0.0741633  
C195     C      0.216930000000     0.778410000000     0.348650000000     0.0743146  
C196     C      0.249460000000     0.803210000000     0.301110000000    -0.0876151  
C197     C      0.257060000000     0.782080000000     0.215100000000    -0.0333025  
C198     C      0.266880000000     0.771620000000     0.179610000000    -0.0285669  
C199     C      0.254210000000     0.768900000000     0.251920000000    -0.00170699 
C200     C      0.227140000000     0.767530000000     0.313910000000    -0.0874465  
C201     C      0.274110000000     0.747740000000     0.180100000000    -0.00847994 
C202     C      0.300270000000     0.749010000000     0.117010000000    -0.0964315  
C203     C      0.271340000000     0.734590000000     0.216990000000    -0.0284939  
C204     C      0.309800000000     0.738240000000     0.081660000000     0.0823859  
C205     C      0.288200000000     0.702870000000     0.095320000000     0.19148    
C206     C      0.261480000000     0.745040000000     0.252460000000    -0.032991   
C207     C      0.243530000000     0.779980000000     0.289500000000     0.0514676  
C208     C      0.284430000000     0.736560000000     0.142240000000     0.0717918  
C209     C      0.447370000000     0.718710000000     0.980330000000    -0.125584   
C210     C      0.602280000000     0.710200000000     0.930490000000     0.074875   
C211     C      0.600720000000     0.697160000000     0.000590000000     0.0750009  
C212     C      0.577610000000     0.711620000000     0.929090000000    -0.0871132  
C213     C      0.525790000000     0.697790000000     0.926770000000    -0.033738   
C214     C      0.501090000000     0.696870000000     0.926010000000    -0.0290088  
C215     C      0.537810000000     0.705500000000     0.962610000000    -0.00167065 
C216     C      0.576050000000     0.698260000000     0.000220000000    -0.08749    
C217     C      0.487770000000     0.703530000000     0.961130000000    -0.00915897 
C218     C      0.450350000000     0.682330000000     0.941760000000    -0.0980869  
C219     C      0.499780000000     0.711590000000     0.996760000000    -0.0287318  
C220     C      0.425770000000     0.680470000000     0.942420000000     0.0806279  
C221     C      0.422670000000     0.716430000000     0.980770000000     0.189883   
C222     C      0.524480000000     0.712620000000     0.997450000000    -0.0333125  
C223     C      0.564130000000     0.705350000000     0.964070000000     0.0513959  
C224     C      0.461510000000     0.701560000000     0.960940000000     0.0708008  
C225     C      0.225370000000     0.212770000000     0.656180000000    -0.125356   
C226     C      0.313640000000     0.279800000000     0.848210000000     0.0767085  
C227     C      0.280340000000     0.304960000000     0.856650000000     0.0776312  
C228     C      0.303120000000     0.268970000000     0.813730000000    -0.0863441  
C229     C      0.257170000000     0.279780000000     0.734280000000    -0.0331582  
C230     C      0.246690000000     0.269710000000     0.699100000000    -0.028116   
C231     C      0.269520000000     0.265570000000     0.762910000000    -0.000876912
C232     C      0.269310000000     0.294510000000     0.822360000000    -0.0861208  
C233     C      0.248320000000     0.245170000000     0.691610000000    -0.00901177 
C234     C      0.238250000000     0.246150000000     0.615670000000    -0.0980756  
C235     C      0.260640000000     0.230930000000     0.720250000000    -0.0282299  
C236     C      0.227540000000     0.236120000000     0.580790000000     0.0808091  
C237     C      0.214740000000     0.202990000000     0.620690000000     0.190021   
C238     C      0.271130000000     0.241010000000     0.755480000000    -0.0331517  
C239     C      0.280750000000     0.276390000000     0.800220000000     0.0525043  
C240     C      0.237220000000     0.234540000000     0.654010000000     0.0713352  
C241     C      0.306280000000     0.295040000000     0.155570000000    -0.125854   
C242     C      0.233890000000     0.205530000000     0.341920000000     0.0742868  
C243     C      0.214350000000     0.242020000000     0.355200000000     0.0746425  
C244     C      0.245120000000     0.215320000000     0.307150000000    -0.0873014  
C245     C      0.254740000000     0.236970000000     0.221920000000    -0.0337357  
C246     C      0.265460000000     0.247240000000     0.187060000000    -0.0288713  
C247     C      0.252640000000     0.249780000000     0.259320000000    -0.00174312 
C248     C      0.225330000000     0.252380000000     0.320760000000    -0.0875243  
C249     C      0.274410000000     0.270510000000     0.188860000000    -0.00931165 
C250     C      0.275830000000     0.278650000000     0.112220000000    -0.0980693  
C251     C      0.272430000000     0.283250000000     0.226340000000    -0.0285537  
C252     C      0.286490000000     0.289240000000     0.077760000000     0.0805314  
C253     C      0.316750000000     0.305470000000     0.120500000000     0.190233   
C254     C      0.261640000000     0.273020000000     0.261140000000    -0.0332918  
C255     C      0.240920000000     0.239020000000     0.296200000000     0.051442   
C256     C      0.285670000000     0.281500000000     0.151740000000     0.0712315  
C257     C      0.448880000000     0.333850000000     0.927910000000    -0.125419   
C258     C      0.598290000000     0.343440000000     0.987970000000     0.0773421  
C259     C      0.601750000000     0.311460000000     0.940290000000     0.0786658  
C260     C      0.573720000000     0.340930000000     0.988550000000    -0.0867841  
C261     C      0.523250000000     0.323080000000     0.999500000000    -0.0331274  
C262     C      0.498550000000     0.322200000000     0.998020000000    -0.0282952  
C263     C      0.536690000000     0.321380000000     0.962770000000    -0.00104145 
C264     C      0.577210000000     0.308560000000     0.939920000000    -0.0859591  
C265     C      0.486760000000     0.319750000000     0.959760000000    -0.00890075 
C266     C      0.446920000000     0.307770000000     0.986890000000    -0.0974291  
C267     C      0.500210000000     0.317660000000     0.923120000000    -0.0281406  
C268     C      0.422300000000     0.309430000000     0.985910000000     0.0822741  
C269     C      0.424150000000     0.335360000000     0.927640000000     0.190561   
C270     C      0.524910000000     0.318380000000     0.924620000000    -0.0327246  
C271     C      0.562870000000     0.323490000000     0.964030000000     0.0530343  
C272     C      0.460520000000     0.320300000000     0.958010000000     0.0718669  
C273     C      0.318050000000     0.445510000000     0.937000000000    -0.124793   
C274     C      0.337580000000     0.598520000000     0.003070000000     0.0778779  
C275     C      0.323430000000     0.597980000000     0.933630000000     0.0775798  
C276     C      0.336030000000     0.573800000000     0.005230000000    -0.086183   
C277     C      0.344670000000     0.521230000000     0.991770000000    -0.0329425  
C278     C      0.343710000000     0.496440000000     0.992440000000    -0.0281583  
C279     C      0.326770000000     0.534460000000     0.972170000000    -0.00079801 
C280     C      0.321690000000     0.573250000000     0.934690000000    -0.0861261  
C281     C      0.324880000000     0.484290000000     0.973440000000    -0.00835292 
C282     C      0.330590000000     0.444930000000     0.008340000000    -0.0968936  
C283     C      0.306890000000     0.497500000000     0.954110000000    -0.0279707  
C284     C      0.331020000000     0.420190000000     0.006860000000     0.0822486  
C285     C      0.318640000000     0.420640000000     0.936170000000     0.192127   
C286     C      0.307810000000     0.522300000000     0.953520000000    -0.0323059  
C287     C      0.328080000000     0.560820000000     0.970740000000     0.0528447  
C288     C      0.324360000000     0.457910000000     0.973020000000     0.072177   
Cd1      Cd     0.336150000000     0.332700000000     0.970490000000     0.516956   
Cd2      Cd     0.337030000000     0.685750000000     0.962490000000     0.517065   
Cd3      Cd     0.686640000000     0.340070000000     0.957440000000     0.514864   
Cd4      Cd     0.688380000000     0.693190000000     0.966530000000     0.51492    
Cd5      Cd     0.833810000000     0.190930000000     0.456650000000     0.515129   
Cd6      Cd     0.837600000000     0.839600000000     0.466090000000     0.515119   
Cd7      Cd     0.189090000000     0.834760000000     0.462710000000     0.510351   
Cd8      Cd     0.184110000000     0.188390000000     0.470910000000     0.51499    
H1       H      0.187630000000     0.913010000000     0.394980000000     0.0353111  
H2       H      0.225780000000     0.112260000000     0.464110000000     0.0368     
H3       H      0.165950000000     0.988900000000     0.417830000000     0.0442568  
H4       H      0.223930000000     0.034060000000     0.502390000000     0.0438212  
H5       H      0.229510000000     0.069610000000     0.460520000000     0.0617069  
H6       H      0.226320000000     0.990820000000     0.500160000000     0.043899   
H7       H      0.153800000000     0.062960000000     0.466460000000     0.0854257  
H8       H      0.189000000000     0.956010000000     0.393380000000     0.0580848  
H9       H      0.204860000000     0.956540000000     0.524780000000     0.058699   
H10      H      0.164280000000     0.032030000000     0.418500000000     0.0453778  
H11      H      0.203970000000     0.913470000000     0.524960000000     0.0355748  
H12      H      0.109240000000     0.840820000000     0.522820000000     0.0356813  
H13      H      0.917770000000     0.861460000000     0.428130000000     0.0383618  
H14      H      0.034220000000     0.809470000000     0.520340000000     0.0449186  
H15      H      0.992280000000     0.836480000000     0.393350000000     0.0441419  
H16      H      0.960220000000     0.858760000000     0.426040000000     0.0624295  
H17      H      0.035400000000     0.836740000000     0.394670000000     0.0442639  
H18      H      0.956870000000     0.790890000000     0.486920000000     0.0854114  
H19      H      0.066420000000     0.838270000000     0.521660000000     0.0586294  
H20      H      0.069800000000     0.810530000000     0.396560000000     0.0590184  
H21      H      0.991070000000     0.809990000000     0.519510000000     0.0460842  
H22      H      0.112650000000     0.813670000000     0.398570000000     0.0358531  
H23      H      0.794950000000     0.913510000000     0.432030000000     0.0381122  
H24      H      0.805390000000     0.116200000000     0.515080000000     0.035024   
H25      H      0.809180000000     0.990690000000     0.405010000000     0.0459361  
H26      H      0.824770000000     0.038990000000     0.531140000000     0.0427755  
H27      H      0.800850000000     0.073740000000     0.520040000000     0.0611635  
H28      H      0.824420000000     0.995890000000     0.536510000000     0.0436144  
H29      H      0.835850000000     0.065630000000     0.401930000000     0.0852736  
H30      H      0.789640000000     0.956260000000     0.431600000000     0.0593974  
H31      H      0.848650000000     0.963240000000     0.515920000000     0.0587797  
H32      H      0.808220000000     0.033770000000     0.400160000000     0.0459744  
H33      H      0.852930000000     0.920480000000     0.516590000000     0.0361501  
H34      H      0.106170000000     0.210000000000     0.529130000000     0.0394582  
H35      H      0.914980000000     0.163400000000     0.460060000000     0.0390809  
H36      H      0.030180000000     0.236760000000     0.501450000000     0.0450763  
H37      H      0.989350000000     0.177060000000     0.413570000000     0.0449108  
H38      H      0.957400000000     0.166070000000     0.460320000000     0.0633813  
H39      H      0.032350000000     0.177990000000     0.415000000000     0.0467661  
H40      H      0.952700000000     0.242220000000     0.456370000000     0.0851957  
H41      H      0.063360000000     0.213180000000     0.526480000000     0.060774   
H42      H      0.065910000000     0.201640000000     0.393730000000     0.0600715  
H43      H      0.986980000000     0.235210000000     0.501230000000     0.0460025  
H44      H      0.108580000000     0.198060000000     0.397680000000     0.0376505  
H45      H      0.837200000000     0.803220000000     0.605510000000     0.0410562  
H46      H      0.714390000000     0.698730000000     0.822170000000     0.0382345  
H47      H      0.795660000000     0.797660000000     0.727940000000     0.0454786  
H48      H      0.724570000000     0.747120000000     0.709220000000     0.0430701  
H49      H      0.732220000000     0.716680000000     0.761730000000     0.0629082  
H50      H      0.743610000000     0.764640000000     0.648370000000     0.0443526  
H51      H      0.740740000000     0.782000000000     0.829310000000     0.0854177  
H52      H      0.818570000000     0.786200000000     0.666710000000     0.0608277  
H53      H      0.750080000000     0.803180000000     0.615570000000     0.0585194  
H54      H      0.777110000000     0.779470000000     0.788640000000     0.0468302  
H55      H      0.769290000000     0.819720000000     0.554530000000     0.0357459  
H56      H      0.752990000000     0.699030000000     0.069070000000     0.0402501  
H57      H      0.793650000000     0.778190000000     0.392590000000     0.0364819  
H58      H      0.790570000000     0.753460000000     0.152280000000     0.0470083  
H59      H      0.744600000000     0.767660000000     0.281610000000     0.0432734  
H60      H      0.775730000000     0.758580000000     0.333800000000     0.0621361  
H61      H      0.725210000000     0.749410000000     0.221750000000     0.0442542  
H62      H      0.808390000000     0.809000000000     0.251400000000     0.085964   
H63      H      0.772680000000     0.715310000000     0.129940000000     0.0607315  
H64      H      0.712820000000     0.761310000000     0.150940000000     0.0601806  
H65      H      0.810100000000     0.771250000000     0.212480000000     0.0469454  
H66      H      0.693590000000     0.744580000000     0.090130000000     0.0381592  
H67      H      0.771960000000     0.235310000000     0.531510000000     0.0362645  
H68      H      0.749480000000     0.300630000000     0.879710000000     0.0358747  
H69      H      0.760110000000     0.288330000000     0.637010000000     0.0454169  
H70      H      0.763820000000     0.248370000000     0.774420000000     0.0435913  
H71      H      0.768490000000     0.282840000000     0.820180000000     0.0618283  
H72      H      0.781830000000     0.229360000000     0.713960000000     0.0442449  
H73      H      0.708770000000     0.301480000000     0.744230000000     0.0852561  
H74      H      0.754260000000     0.254270000000     0.591760000000     0.0594671  
H75      H      0.814630000000     0.233560000000     0.665370000000     0.0591313  
H76      H      0.742080000000     0.307310000000     0.697430000000     0.0460074  
H77      H      0.831620000000     0.214380000000     0.604590000000     0.0369379  
H78      H      0.773480000000     0.197440000000     0.346940000000     0.0378644  
H79      H      0.748800000000     0.325860000000     0.058790000000     0.0359847  
H80      H      0.761440000000     0.217110000000     0.210010000000     0.0459289  
H81      H      0.763110000000     0.304590000000     0.192580000000     0.0433389  
H82      H      0.767940000000     0.307600000000     0.117510000000     0.061624   
H83      H      0.781550000000     0.286810000000     0.253580000000     0.0449932  
H84      H      0.709370000000     0.259470000000     0.130580000000     0.0851181  
H85      H      0.755650000000     0.214500000000     0.285160000000     0.0599228  
H86      H      0.815110000000     0.262100000000     0.273600000000     0.0601803  
H87      H      0.743020000000     0.234900000000     0.148900000000     0.0461226  
H88      H      0.832250000000     0.244880000000     0.335900000000     0.0407808  
H89      H      0.693150000000     0.419300000000     0.893020000000     0.038545   
H90      H      0.660550000000     0.612220000000     0.980730000000     0.034726   
H91      H      0.722500000000     0.495230000000     0.906940000000     0.0450619  
H92      H      0.679390000000     0.537270000000     0.019570000000     0.0427475  
H93      H      0.662350000000     0.569610000000     0.980250000000     0.0609314  
H94      H      0.679300000000     0.494090000000     0.018010000000     0.0439332  
H95      H      0.735900000000     0.572820000000     0.946370000000     0.0850639  
H96      H      0.695900000000     0.462280000000     0.894160000000     0.0594851  
H97      H      0.704470000000     0.459990000000     0.027580000000     0.0586739  
H98      H      0.721730000000     0.538550000000     0.907510000000     0.0458657  
H99      H      0.701100000000     0.417090000000     0.025360000000     0.0362283  
H100     H      0.189340000000     0.783540000000     0.586590000000     0.0360064  
H101     H      0.335420000000     0.732070000000     0.834410000000     0.0367185  
H102     H      0.222370000000     0.776750000000     0.716010000000     0.0450715  
H103     H      0.302360000000     0.740920000000     0.706380000000     0.0429218  
H104     H      0.318430000000     0.750470000000     0.773790000000     0.0615445  
H105     H      0.284920000000     0.759320000000     0.644940000000     0.0439004  
H106     H      0.250710000000     0.720480000000     0.804870000000     0.0852257  
H107     H      0.206820000000     0.765030000000     0.647400000000     0.0593225  
H108     H      0.273330000000     0.798850000000     0.618600000000     0.0581942  
H109     H      0.239860000000     0.758620000000     0.777570000000     0.0461392  
H110     H      0.255330000000     0.816940000000     0.557730000000     0.035172   
H111     H      0.204160000000     0.768250000000     0.366500000000     0.0359422  
H112     H      0.322120000000     0.748700000000     0.063400000000     0.0418532  
H113     H      0.259840000000     0.734500000000     0.280510000000     0.0447285  
H114     H      0.268430000000     0.782150000000     0.151540000000     0.0440271  
H115     H      0.305630000000     0.766930000000     0.124770000000     0.0633102  
H116     H      0.251300000000     0.800390000000     0.213450000000     0.0444272  
H117     H      0.265830000000     0.703430000000     0.149550000000     0.0856269  
H118     H      0.221870000000     0.749630000000     0.305820000000     0.0592797  
H119     H      0.262300000000     0.813350000000     0.283470000000     0.0583648  
H120     H      0.277070000000     0.716270000000     0.218640000000     0.0461741  
H121     H      0.244000000000     0.831530000000     0.343970000000     0.0355446  
H122     H      0.609200000000     0.691270000000     0.029030000000     0.0360614  
H123     H      0.418140000000     0.665050000000     0.927310000000     0.0350088  
H124     H      0.533120000000     0.718950000000     0.025400000000     0.0444867  
H125     H      0.492440000000     0.690890000000     0.897830000000     0.0425636  
H126     H      0.460550000000     0.668430000000     0.926860000000     0.0608968  
H127     H      0.535450000000     0.691930000000     0.899510000000     0.0435874  
H128     H      0.455470000000     0.734090000000     0.994710000000     0.084727   
H129     H      0.566420000000     0.692950000000     0.027840000000     0.0582528  
H130     H      0.569200000000     0.717590000000     0.900700000000     0.0586988  
H131     H      0.490120000000     0.716660000000     0.024510000000     0.0454421  
H132     H      0.612050000000     0.714980000000     0.902650000000     0.0363549  
H133     H      0.270910000000     0.318980000000     0.872780000000     0.0408742  
H134     H      0.228970000000     0.245940000000     0.551860000000     0.0355006  
H135     H      0.280310000000     0.229520000000     0.777100000000     0.0448805  
H136     H      0.237110000000     0.281160000000     0.677930000000     0.0438848  
H137     H      0.247530000000     0.262860000000     0.612360000000     0.0620908  
H138     H      0.255820000000     0.298790000000     0.738750000000     0.0464551  
H139     H      0.224010000000     0.203510000000     0.685650000000     0.0851399  
H140     H      0.251840000000     0.300540000000     0.813470000000     0.0606721  
H141     H      0.312720000000     0.255210000000     0.797310000000     0.0599426  
H142     H      0.262440000000     0.212000000000     0.715220000000     0.0457489  
H143     H      0.331060000000     0.273720000000     0.857420000000     0.037906   
H144     H      0.202330000000     0.252950000000     0.373270000000     0.036176   
H145     H      0.278010000000     0.286490000000     0.047880000000     0.0355053  
H146     H      0.260510000000     0.283270000000     0.289600000000     0.044955   
H147     H      0.266910000000     0.236870000000     0.158770000000     0.0430052  
H148     H      0.259710000000     0.268550000000     0.107890000000     0.0615609  
H149     H      0.247790000000     0.219110000000     0.219380000000     0.0440334  
H150     H      0.314440000000     0.297300000000     0.185820000000     0.0851783  
H151     H      0.221330000000     0.270670000000     0.313110000000     0.0588848  
H152     H      0.257250000000     0.204440000000     0.289300000000     0.058715   
H153     H      0.278950000000     0.301290000000     0.228640000000     0.0459626  
H154     H      0.237660000000     0.187160000000     0.349440000000     0.0358786  
H155     H      0.612230000000     0.299640000000     0.921020000000     0.0420893  
H156     H      0.412620000000     0.299600000000     0.009430000000     0.0393951  
H157     H      0.534770000000     0.317210000000     0.895750000000     0.0467612  
H158     H      0.488670000000     0.324040000000     0.026750000000     0.0449968  
H159     H      0.455240000000     0.296760000000     0.010300000000     0.0636091  
H160     H      0.531830000000     0.325170000000     0.029400000000     0.045815   
H161     H      0.459020000000     0.343670000000     0.905000000000     0.085813   
H162     H      0.569530000000     0.294670000000     0.920910000000     0.0616022  
H163     H      0.563260000000     0.352990000000     0.007330000000     0.0598829  
H164     H      0.491630000000     0.315530000000     0.893220000000     0.0466898  
H165     H      0.605980000000     0.357370000000     0.006940000000     0.0367685  
H166     H      0.318440000000     0.606910000000     0.905060000000     0.0395724  
H167     H      0.336280000000     0.411030000000     0.035060000000     0.0396405  
H168     H      0.293540000000     0.531960000000     0.938750000000     0.0469586  
H169     H      0.358040000000     0.486780000000     0.007030000000     0.0447272  
H170     H      0.335180000000     0.453810000000     0.037140000000     0.0632895  
H171     H      0.359720000000     0.529990000000     0.005860000000     0.0446779  
H172     H      0.313090000000     0.455140000000     0.909150000000     0.0861609  
H173     H      0.315760000000     0.563940000000     0.907110000000     0.0608242  
H174     H      0.340840000000     0.564970000000     0.033940000000     0.0603358  
H175     H      0.291970000000     0.488680000000     0.939720000000     0.0468642  
H176     H      0.343810000000     0.607880000000     0.030450000000     0.0397186  
N1       N      0.187740000000     0.112630000000     0.466600000000    -0.191741   
N2       N      0.195500000000     0.910150000000     0.460130000000    -0.179777   
N3       N      0.912290000000     0.828090000000     0.459350000000    -0.191329   
N4       N      0.114020000000     0.827550000000     0.460740000000    -0.1796     
N5       N      0.823130000000     0.115850000000     0.455780000000    -0.192334   
N6       N      0.824450000000     0.913940000000     0.473980000000    -0.179206   
N7       N      0.908760000000     0.201100000000     0.458290000000    -0.191441   
N8       N      0.110410000000     0.203420000000     0.463760000000    -0.178481   
N9       N      0.717400000000     0.729570000000     0.861400000000    -0.191884   
N10      N      0.804610000000     0.812600000000     0.575550000000    -0.178487   
N11      N      0.811330000000     0.805150000000     0.356720000000    -0.192281   
N12      N      0.721920000000     0.720660000000     0.075180000000    -0.178324   
N13      N      0.718090000000     0.311560000000     0.847080000000    -0.192069   
N14      N      0.803050000000     0.223500000000     0.563690000000    -0.179754   
N15      N      0.717960000000     0.303440000000     0.059940000000    -0.192215   
N16      N      0.804090000000     0.219980000000     0.345960000000    -0.178343   
N17      N      0.696970000000     0.617710000000     0.963520000000    -0.192325   
N18      N      0.696690000000     0.415130000000     0.959110000000    -0.179166   
N19      N      0.303110000000     0.715850000000     0.855650000000    -0.192133   
N20      N      0.221050000000     0.801600000000     0.567840000000    -0.179709   
N21      N      0.304030000000     0.715340000000     0.070660000000    -0.190627   
N22      N      0.222710000000     0.801250000000     0.359500000000    -0.17955    
N23      N      0.411860000000     0.697140000000     0.961980000000    -0.192303   
N24      N      0.613700000000     0.702780000000     0.965830000000    -0.179144   
N25      N      0.215790000000     0.214750000000     0.582870000000    -0.192414   
N26      N      0.302390000000     0.297770000000     0.869260000000    -0.177995   
N27      N      0.306800000000     0.302570000000     0.081430000000    -0.192043   
N28      N      0.218610000000     0.218790000000     0.365680000000    -0.179218   
N29      N      0.410860000000     0.323530000000     0.957350000000    -0.191856   
N30      N      0.612160000000     0.328950000000     0.963750000000    -0.178151   
N31      N      0.325650000000     0.407970000000     0.970990000000    -0.191262   
N32      N      0.331390000000     0.610480000000     0.967510000000    -0.178016   
O1       O      0.335060000000     0.324550000000     0.045880000000    -0.220816   
O2       O      0.303480000000     0.325690000000     0.921760000000    -0.235539   
O3       O      0.374580000000     0.313670000000     0.985850000000    -0.242267   
O4       O      0.333770000000     0.372310000000     0.003560000000    -0.243231   
O5       O      0.325970000000     0.371180000000     0.938640000000    -0.218514   
O6       O      0.375120000000     0.340900000000     0.939600000000    -0.223998   
O7       O      0.306700000000     0.309730000000     0.010560000000    -0.249978   
O8       O      0.333570000000     0.302620000000     0.914860000000    -0.244149   
O9       O      0.310910000000     0.684740000000     0.023850000000    -0.219749   
O10      O      0.335890000000     0.708200000000     0.896460000000    -0.248745   
O11      O      0.340780000000     0.646800000000     0.996360000000    -0.239026   
O12      O      0.378170000000     0.676680000000     0.942620000000    -0.249932   
O13      O      0.373610000000     0.706940000000     0.981920000000    -0.221877   
O14      O      0.327460000000     0.646400000000     0.933660000000    -0.240072   
O15      O      0.328540000000     0.717700000000     0.013100000000    -0.237122   
O16      O      0.302740000000     0.694630000000     0.917530000000    -0.22296    
O17      O      0.687730000000     0.330370000000     0.882800000000    -0.220802   
O18      O      0.717910000000     0.332340000000     0.008880000000    -0.24472    
O19      O      0.649560000000     0.319120000000     0.940620000000    -0.234868   
O20      O      0.690710000000     0.379620000000     0.924860000000    -0.24533    
O21      O      0.694020000000     0.378660000000     0.991360000000    -0.245094   
O22      O      0.646280000000     0.348760000000     0.982320000000    -0.246604   
O23      O      0.718540000000     0.320710000000     0.917260000000    -0.248842   
O24      O      0.687940000000     0.309240000000     0.011770000000    -0.226457   
O25      O      0.701080000000     0.696560000000     0.893210000000    -0.243193   
O26      O      0.691140000000     0.719090000000     0.028210000000    -0.241606   
O27      O      0.711250000000     0.656130000000     0.955560000000    -0.22084    
O28      O      0.650370000000     0.704350000000     0.934170000000    -0.246463   
O29      O      0.648870000000     0.693580000000     0.998330000000    -0.242254   
O30      O      0.675200000000     0.651880000000     0.973930000000    -0.251371   
O31      O      0.705130000000     0.727800000000     0.930270000000    -0.226298   
O32      O      0.720430000000     0.695460000000     0.018580000000    -0.2415     
O33      O      0.819370000000     0.153010000000     0.485830000000    -0.249706   
O34      O      0.870200000000     0.215370000000     0.457030000000    -0.220797   
O35      O      0.802820000000     0.213080000000     0.494270000000    -0.249041   
O36      O      0.803670000000     0.194120000000     0.401590000000    -0.243495   
O37      O      0.833250000000     0.217830000000     0.396010000000    -0.238732   
O38      O      0.832670000000     0.202370000000     0.530900000000    -0.246602   
O39      O      0.835920000000     0.151100000000     0.426040000000    -0.222616   
O40      O      0.875170000000     0.177770000000     0.458320000000    -0.243842   
O41      O      0.874210000000     0.816450000000     0.477440000000    -0.220918   
O42      O      0.815990000000     0.876450000000     0.449110000000    -0.242782   
O43      O      0.837550000000     0.821720000000     0.536150000000    -0.237482   
O44      O      0.817310000000     0.807510000000     0.427760000000    -0.247069   
O45      O      0.831270000000     0.835550000000     0.390450000000    -0.224538   
O46      O      0.803420000000     0.830090000000     0.510670000000    -0.247072   
O47      O      0.878400000000     0.849830000000     0.446760000000    -0.243099   
O48      O      0.844260000000     0.879910000000     0.493290000000    -0.247824   
O49      O      0.196750000000     0.801270000000     0.415020000000    -0.246873   
O50      O      0.222340000000     0.826090000000     0.510280000000    -0.248777   
O51      O      0.150910000000     0.823890000000     0.430530000000    -0.246533   
O52      O      0.188270000000     0.873990000000     0.428980000000    -0.248398   
O53      O      0.197510000000     0.874020000000     0.493790000000    -0.247811   
O54      O      0.149080000000     0.837680000000     0.492780000000    -0.247781   
O55      O      0.216970000000     0.832940000000     0.403860000000    -0.24703    
O56      O      0.189490000000     0.808660000000     0.524160000000    -0.24801    
O57      O      0.205230000000     0.149790000000     0.469170000000    -0.241768   
O58      O      0.145520000000     0.200720000000     0.500100000000    -0.241497   
O59      O      0.211190000000     0.187610000000     0.410480000000    -0.245871   
O60      O      0.206360000000     0.217440000000     0.513040000000    -0.250744   
O61      O      0.194800000000     0.186500000000     0.545440000000    -0.223929   
O62      O      0.193210000000     0.220610000000     0.421830000000    -0.245543   
O63      O      0.167470000000     0.148350000000     0.467690000000    -0.225036   
O64      O      0.146400000000     0.194000000000     0.434270000000    -0.243144   


