data_structure

_audit_creation_method RASPA-1.0
_audit_creation_date 2023-5-22
_audit_author_name 'Poobodin Mano'

_cell_length_a    45.4208
_cell_length_b    45.4784
_cell_length_c    47.2393
_cell_angle_alpha 90
_cell_angle_beta  90
_cell_angle_gamma 90
_cell_volume      97580.6

_symmetry_cell_setting          triclinic
_symmetry_space_group_name_Hall 'P 1'
_symmetry_space_group_name_H-M  'P 1'
_symmetry_Int_Tables_number     1

_symmetry_equiv_pos_as_xyz 'x,y,z'

loop_
_atom_site_label
_atom_site_type_symbol
_atom_site_fract_x
_atom_site_fract_y
_atom_site_fract_z
_atom_site_charge
C1       C      0.908550000000     0.411290000000     0.885650000000     0.346829   
C2       C      0.834810000000     0.408100000000     0.815570000000     0.347809   
C3       C      0.910320000000     0.335340000000     0.817910000000     0.353057   
C4       C      0.838290000000     0.334040000000     0.887910000000     0.346682   
C5       C      0.084040000000     0.584900000000     0.068650000000     0.351782   
C6       C      0.152690000000     0.661620000000     0.070830000000     0.346831   
C7       C      0.078720000000     0.657400000000     0.140620000000     0.348274   
C8       C      0.154540000000     0.586030000000     0.141620000000     0.348043   
C9       C      0.336220000000     0.839420000000     0.899080000000     0.34875    
C10      C      0.337920000000     0.906080000000     0.818230000000     0.346537   
C11      C      0.406870000000     0.908350000000     0.897760000000     0.345648   
C12      C      0.406660000000     0.837750000000     0.821890000000     0.347992   
C13      C      0.665080000000     0.158730000000     0.071500000000     0.347358   
C14      C      0.590740000000     0.086550000000     0.068790000000     0.347258   
C15      C      0.659250000000     0.087140000000     0.145390000000     0.349595   
C16      C      0.587990000000     0.157910000000     0.141720000000     0.346846   
C17      C      0.336540000000     0.407700000000     0.314340000000     0.349654   
C18      C      0.415190000000     0.339960000000     0.319520000000     0.348433   
C19      C      0.409720000000     0.416710000000     0.385730000000     0.34561    
C20      C      0.340480000000     0.339590000000     0.390370000000     0.350526   
C21      C      0.653600000000     0.587560000000     0.643520000000     0.350164   
C22      C      0.581330000000     0.660830000000     0.641040000000     0.349614   
C23      C      0.660900000000     0.663840000000     0.575970000000     0.347085   
C24      C      0.586190000000     0.590510000000     0.567410000000     0.350343   
C25      C      0.906400000000     0.837550000000     0.320540000000     0.349645   
C26      C      0.838650000000     0.910810000000     0.322510000000     0.347203   
C27      C      0.839600000000     0.841380000000     0.399530000000     0.346128   
C28      C      0.912640000000     0.909680000000     0.395270000000     0.346313   
C29      C      0.092400000000     0.163370000000     0.639400000000     0.350765   
C30      C      0.164500000000     0.086200000000     0.639350000000     0.348686   
C31      C      0.090170000000     0.089360000000     0.570720000000     0.348213   
C32      C      0.168810000000     0.162100000000     0.573350000000     0.345435   
C33      C      0.978500000000     0.943450000000     0.428360000000    -0.074213   
C34      C      0.062530000000     0.045520000000     0.563820000000     0.0742894  
C35      C      0.063910000000     0.081830000000     0.527810000000     0.0746421  
C36      C      0.044560000000     0.027680000000     0.547060000000    -0.0877963  
C37      C      0.993530000000     0.002760000000     0.512620000000    -0.0315475  
C38      C      0.976320000000     0.984790000000     0.495210000000    -0.0330414  
C39      C      0.017840000000     0.018020000000     0.501510000000    -0.00359145 
C40      C      0.046090000000     0.064490000000     0.510440000000    -0.088071   
C41      C      0.983200000000     0.981540000000     0.466370000000    -0.000690012
C42      C      0.934500000000     0.963020000000     0.449130000000    -0.0848337  
C43      C      0.007500000000     0.996820000000     0.455270000000    -0.033145   
C44      C      0.917920000000     0.945280000000     0.431130000000     0.0711731  
C45      C      0.961490000000     0.925790000000     0.410230000000     0.0539256  
C46      C      0.024590000000     0.014890000000     0.472630000000    -0.0309975  
C47      C      0.036280000000     0.037010000000     0.519950000000     0.0521534  
C48      C      0.965130000000     0.962290000000     0.447840000000     0.0477334  
C49      C      0.728250000000     0.696810000000     0.545010000000    -0.0742886  
C50      C      0.793080000000     0.829520000000     0.419570000000     0.0742444  
C51      C      0.835880000000     0.804130000000     0.434690000000     0.0743632  
C52      C      0.775620000000     0.812670000000     0.437710000000    -0.0876022  
C53      C      0.746460000000     0.784620000000     0.488780000000    -0.0315321  
C54      C      0.728880000000     0.767050000000     0.506210000000    -0.0327956  
C55      C      0.770150000000     0.772370000000     0.473670000000    -0.0031253  
C56      C      0.819070000000     0.786900000000     0.453100000000    -0.0870858  
C57      C      0.734620000000     0.736810000000     0.508990000000    -0.000637315
C58      C      0.685280000000     0.721330000000     0.527350000000    -0.0843207  
C59      C      0.758400000000     0.724580000000     0.494020000000    -0.0326291  
C60      C      0.667900000000     0.703200000000     0.544250000000     0.0721385  
C61      C      0.710450000000     0.679000000000     0.562310000000     0.0545021  
C62      C      0.775930000000     0.742130000000     0.476550000000    -0.0311521  
C63      C      0.788520000000     0.790940000000     0.454700000000     0.0518052  
C64      C      0.715790000000     0.718040000000     0.527310000000     0.048086   
C65      C      0.214680000000     0.224400000000     0.548520000000    -0.0731938  
C66      C      0.314130000000     0.295450000000     0.399710000000     0.0787762  
C67      C      0.317740000000     0.332210000000     0.435140000000     0.0774747  
C68      C      0.297560000000     0.277680000000     0.417800000000    -0.0865892  
C69      C      0.278230000000     0.238340000000     0.466420000000    -0.0311792  
C70      C      0.261650000000     0.220840000000     0.484780000000    -0.0328796  
C71      C      0.273230000000     0.268800000000     0.464750000000    -0.00269528 
C72      C      0.301140000000     0.315050000000     0.453760000000    -0.0867019  
C73      C      0.239630000000     0.233370000000     0.501880000000    -0.000133125
C74      C      0.212010000000     0.187060000000     0.512770000000    -0.0842365  
C75      C      0.234640000000     0.263840000000     0.500220000000    -0.0323754  
C76      C      0.194990000000     0.170020000000     0.531000000000     0.0713213  
C77      C      0.197760000000     0.206790000000     0.566810000000     0.0534112  
C78      C      0.251270000000     0.281350000000     0.481890000000    -0.0304407  
C79      C      0.290850000000     0.287400000000     0.445200000000     0.0534922  
C80      C      0.221810000000     0.214720000000     0.521280000000     0.0475977  
C81      C      0.432490000000     0.477530000000     0.433150000000    -0.0742986  
C82      C      0.568810000000     0.580340000000     0.520910000000     0.0764655  
C83      C      0.553520000000     0.550570000000     0.559420000000     0.0781907  
C84      C      0.551780000000     0.563660000000     0.502220000000    -0.0870832  
C85      C      0.527060000000     0.513530000000     0.466390000000    -0.0313208  
C86      C      0.509520000000     0.496660000000     0.448280000000    -0.0322914  
C87      C      0.516410000000     0.522340000000     0.493010000000    -0.00258077 
C88      C      0.536130000000     0.533570000000     0.541370000000    -0.0865619  
C89      C      0.480880000000     0.488420000000     0.456320000000    -0.000322219
C90      C      0.473750000000     0.446500000000     0.422670000000    -0.0829136  
C91      C      0.470210000000     0.497340000000     0.482900000000    -0.0318213  
C92      C      0.455660000000     0.429520000000     0.405360000000     0.0724083  
C93      C      0.414640000000     0.460520000000     0.415190000000     0.0548234  
C94      C      0.487800000000     0.514040000000     0.501060000000    -0.030642   
C95      C      0.535060000000     0.540040000000     0.512410000000     0.0533484  
C96      C      0.462150000000     0.470550000000     0.437130000000     0.0485129  
C97      C      0.683780000000     0.025870000000     0.191520000000    -0.0747483  
C98      C      0.830180000000     0.956090000000     0.298690000000     0.0743872  
C99      C      0.795920000000     0.917060000000     0.294090000000     0.0744666  
C100     C      0.813080000000     0.973850000000     0.281040000000    -0.0875217  
C101     C      0.764900000000     0.012130000000     0.256430000000    -0.0314295  
C102     C      0.747060000000     0.029580000000     0.239140000000    -0.0328576  
C103     C      0.767890000000     0.981800000000     0.251190000000    -0.00312101 
C104     C      0.778150000000     0.934300000000     0.276590000000    -0.0874808  
C105     C      0.731580000000     0.017080000000     0.216390000000    -0.000752296
C106     C      0.721490000000     0.062600000000     0.188300000000    -0.0845906  
C107     C      0.734580000000     0.986850000000     0.211060000000    -0.0326476  
C108     C      0.703050000000     0.079250000000     0.171040000000     0.0729417  
C109     C      0.665150000000     0.043210000000     0.174610000000     0.0559351  
C110     C      0.752620000000     0.969440000000     0.228160000000    -0.0309138  
C111     C      0.786620000000     0.963100000000     0.269790000000     0.0519372  
C112     C      0.712080000000     0.035420000000     0.198420000000     0.048831   
C113     C      0.469190000000     0.283520000000     0.296910000000    -0.0742013  
C114     C      0.552200000000     0.195660000000     0.147210000000     0.0750446  
C115     C      0.571320000000     0.171360000000     0.187630000000     0.0754595  
C116     C      0.534740000000     0.213600000000     0.164370000000    -0.0874998  
C117     C      0.514760000000     0.259900000000     0.206540000000    -0.0315092  
C118     C      0.498270000000     0.278140000000     0.224300000000    -0.0326032  
C119     C      0.517730000000     0.229760000000     0.212530000000    -0.0029369  
C120     C      0.554150000000     0.188910000000     0.205410000000    -0.0868267  
C121     C      0.484380000000     0.266690000000     0.248500000000    -0.000491498
C122     C      0.448430000000     0.307620000000     0.256420000000    -0.0836403  
C123     C      0.487240000000     0.236530000000     0.254440000000    -0.0322418  
C124     C      0.432070000000     0.325440000000     0.274500000000     0.0731478  
C125     C      0.452860000000     0.301980000000     0.314910000000     0.0546704  
C126     C      0.503710000000     0.218280000000     0.236670000000    -0.0311346  
C127     C      0.535660000000     0.210460000000     0.193870000000     0.0521946  
C128     C      0.467020000000     0.286130000000     0.267510000000     0.0483846  
C129     C      0.283930000000     0.927060000000     0.763070000000    -0.0742463  
C130     C      0.209080000000     0.059940000000     0.647110000000     0.0750588  
C131     C      0.170970000000     0.058240000000     0.681380000000     0.0754348  
C132     C      0.226740000000     0.041780000000     0.663870000000    -0.0874937  
C133     C      0.265150000000     0.017760000000     0.711220000000    -0.0314319  
C134     C      0.282430000000     0.999940000000     0.728690000000    -0.0325864  
C135     C      0.234800000000     0.012480000000     0.708320000000    -0.00302323 
C136     C      0.188030000000     0.040100000000     0.698670000000    -0.0876116  
C137     C      0.269770000000     0.976410000000     0.743680000000    -0.000610228
C138     C      0.309850000000     0.969690000000     0.779570000000    -0.0843061  
C139     C      0.239430000000     0.971090000000     0.740720000000    -0.0324712  
C140     C      0.326410000000     0.951700000000     0.797360000000     0.0718826  
C141     C      0.301080000000     0.909160000000     0.780850000000     0.0538925  
C142     C      0.222170000000     0.988880000000     0.723230000000    -0.0311173  
C143     C      0.216310000000     0.031650000000     0.690040000000     0.0523639  
C144     C      0.288060000000     0.957500000000     0.762400000000     0.0480234  
C145     C      0.517120000000     0.686640000000     0.682640000000    -0.0733358  
C146     C      0.450030000000     0.830810000000     0.794480000000     0.0760271  
C147     C      0.413110000000     0.793960000000     0.795140000000     0.0777222  
C148     C      0.467280000000     0.813780000000     0.776290000000    -0.0870417  
C149     C      0.491640000000     0.780210000000     0.725910000000    -0.0305442  
C150     C      0.508730000000     0.762650000000     0.708010000000    -0.0324425  
C151     C      0.475400000000     0.767560000000     0.748150000000    -0.00254939 
C152     C      0.429720000000     0.776420000000     0.776890000000    -0.0864188  
C153     C      0.509850000000     0.732030000000     0.711860000000     0.000388078
C154     C      0.556520000000     0.721620000000     0.685570000000    -0.0833694  
C155     C      0.493640000000     0.719370000000     0.734070000000    -0.032045   
C156     C      0.573530000000     0.703410000000     0.668400000000     0.075269   
C157     C      0.534600000000     0.668410000000     0.665460000000     0.0565977  
C158     C      0.476670000000     0.736920000000     0.752030000000    -0.029956   
C159     C      0.457240000000     0.786180000000     0.767280000000     0.0532575  
C160     C      0.528010000000     0.713300000000     0.692930000000     0.0493966  
C161     C      0.565280000000     0.026550000000     0.021610000000    -0.0742593  
C162     C      0.412610000000     0.950310000000     0.927330000000     0.0740009  
C163     C      0.452470000000     0.917320000000     0.920890000000     0.07439    
C164     C      0.429860000000     0.968020000000     0.944910000000    -0.0875971  
C165     C      0.476530000000     0.010010000000     0.966920000000    -0.0313873  
C166     C      0.494890000000     0.027690000000     0.983500000000    -0.0328008  
C167     C      0.478110000000     0.979170000000     0.968720000000    -0.00309452 
C168     C      0.470340000000     0.934550000000     0.938290000000    -0.0874535  
C169     C      0.515320000000     0.014950000000     0.002160000000    -0.000402193
C170     C      0.525250000000     0.058950000000     0.032600000000    -0.0840113  
C171     C      0.516710000000     0.984150000000     0.004190000000    -0.0324395  
C172     C      0.544480000000     0.076110000000     0.048570000000     0.0729608  
C173     C      0.584540000000     0.044350000000     0.037390000000     0.0561383  
C174     C      0.498290000000     0.966470000000     0.987710000000    -0.0311062  
C175     C      0.459160000000     0.960320000000     0.950520000000     0.0519082  
C176     C      0.535480000000     0.033680000000     0.019140000000     0.0487751  
C177     C      0.015310000000     0.701190000000     0.166510000000    -0.07376    
C178     C      0.943140000000     0.832100000000     0.285110000000     0.0776328  
C179     C      0.917530000000     0.790200000000     0.302020000000     0.0762473  
C180     C      0.959950000000     0.814520000000     0.267060000000    -0.0864159  
C181     C      0.003890000000     0.769990000000     0.244560000000    -0.0310681  
C182     C      0.020840000000     0.752090000000     0.226890000000    -0.0318637  
C183     C      0.973520000000     0.764970000000     0.247700000000    -0.00252678 
C184     C      0.933910000000     0.771960000000     0.284180000000    -0.0870894  
C185     C      0.007810000000     0.728790000000     0.211890000000    -0.000384852
C186     C      0.053560000000     0.700100000000     0.201460000000    -0.0843693  
C187     C      0.977440000000     0.723750000000     0.215040000000    -0.0324041  
C188     C      0.070230000000     0.682400000000     0.183510000000     0.0729113  
C189     C      0.032270000000     0.683110000000     0.148710000000     0.056697   
C190     C      0.960500000000     0.741610000000     0.232770000000    -0.0308913  
C191     C      0.955530000000     0.784040000000     0.266500000000     0.0531017  
C192     C      0.025830000000     0.709830000000     0.193020000000     0.0489139  
C193     C      0.179440000000     0.725920000000     0.029900000000    -0.073938   
C194     C      0.328960000000     0.796220000000     0.926560000000     0.0754714  
C195     C      0.292000000000     0.833030000000     0.925340000000     0.0758637  
C196     C      0.311470000000     0.778760000000     0.944130000000    -0.0875579  
C197     C      0.261930000000     0.739610000000     0.965320000000    -0.0312168  
C198     C      0.243490000000     0.722090000000     0.981930000000    -0.0323931  
C199     C      0.264310000000     0.769950000000     0.970470000000    -0.00295967 
C200     C      0.273990000000     0.816190000000     0.943000000000    -0.0872189  
C201     C      0.227050000000     0.734470000000     0.004170000000    -0.000376071
C202     C      0.215640000000     0.687560000000     0.029750000000    -0.0843032  
C203     C      0.229570000000     0.764810000000     0.009410000000    -0.0324263  
C204     C      0.196700000000     0.670220000000     0.045820000000     0.0721833  
C205     C      0.160440000000     0.708070000000     0.045950000000     0.0539886  
C206     C      0.247940000000     0.782350000000     0.992720000000    -0.0311736  
C207     C      0.283550000000     0.788600000000     0.952450000000     0.0526197  
C208     C      0.207200000000     0.715800000000     0.021640000000     0.0481602  
C209     C      0.274230000000     0.430140000000     0.268460000000    -0.0738383  
C210     C      0.197130000000     0.579970000000     0.170300000000     0.0746494  
C211     C      0.164300000000     0.540030000000     0.163610000000     0.0745532  
C212     C      0.215230000000     0.562570000000     0.187350000000    -0.087968   
C213     C      0.257510000000     0.515240000000     0.207820000000    -0.0312842  
C214     C      0.275440000000     0.497370000000     0.224600000000    -0.0325181  
C215     C      0.226720000000     0.514350000000     0.210680000000    -0.00323944 
C216     C      0.181820000000     0.522050000000     0.180660000000    -0.0878553  
C217     C      0.263010000000     0.478240000000     0.244720000000    -4.81838e-05
C218     C      0.308520000000     0.469880000000     0.273570000000    -0.0829008  
C219     C      0.232200000000     0.477420000000     0.247620000000    -0.032266   
C220     C      0.326160000000     0.451830000000     0.290270000000     0.0743551  
C221     C      0.292420000000     0.412090000000     0.285150000000     0.0549554  
C222     C      0.214270000000     0.495220000000     0.230760000000    -0.0308961  
C223     C      0.207670000000     0.533230000000     0.192710000000     0.0523139  
C224     C      0.282120000000     0.459220000000     0.262580000000     0.0486851  
C225     C      0.972430000000     0.288920000000     0.793230000000    -0.073565   
C226     C      0.048420000000     0.190900000000     0.646170000000     0.076954   
C227     C      0.083770000000     0.187900000000     0.683010000000     0.0783089  
C228     C      0.030050000000     0.208020000000     0.663250000000    -0.0872097  
C229     C      0.004430000000     0.257420000000     0.699570000000    -0.0306739  
C230     C      0.986450000000     0.274030000000     0.717500000000    -0.0315749  
C231     C      0.019100000000     0.232370000000     0.709760000000    -0.00251396 
C232     C      0.065890000000     0.204790000000     0.700690000000    -0.0868403  
C233     C      0.982630000000     0.265860000000     0.745990000000     0.000335816
C234     C      0.937430000000     0.295800000000     0.755850000000    -0.0832079  
C235     C      0.997060000000     0.240580000000     0.756040000000    -0.0317079  
C236     C      0.920280000000     0.312650000000     0.774120000000     0.0760795  
C237     C      0.954790000000     0.305760000000     0.811540000000     0.0594753  
C238     C      0.015140000000     0.224080000000     0.738170000000    -0.0304458  
C239     C      0.038600000000     0.214930000000     0.690950000000     0.0537006  
C240     C      0.963900000000     0.283770000000     0.765250000000     0.0503965  
C241     C      0.805500000000     0.268340000000     0.922160000000    -0.0742974  
C242     C      0.684820000000     0.205430000000     0.059140000000     0.0745222  
C243     C      0.699020000000     0.162960000000     0.033400000000     0.074877   
C244     C      0.702380000000     0.223100000000     0.041830000000    -0.0876828  
C245     C      0.726090000000     0.255800000000     0.990410000000    -0.0318731  
C246     C      0.743000000000     0.272930000000     0.972000000000    -0.0324322  
C247     C      0.736940000000     0.228940000000     0.000770000000    -0.00263881 
C248     C      0.716940000000     0.179960000000     0.015810000000    -0.0862604  
C249     C      0.771230000000     0.263670000000     0.963620000000    -0.000697711
C250     C      0.789200000000     0.312260000000     0.945430000000    -0.0842883  
C251     C      0.782180000000     0.236910000000     0.974230000000    -0.0321886  
C252     C      0.805640000000     0.328790000000     0.926300000000     0.072185   
C253     C      0.821870000000     0.285320000000     0.902890000000     0.054856   
C254     C      0.765200000000     0.219710000000     0.992530000000    -0.0315019  
C255     C      0.718640000000     0.210430000000     0.019790000000     0.0519634  
C256     C      0.789010000000     0.281670000000     0.943600000000     0.0482925  
C257     C      0.684360000000     0.551150000000     0.707100000000    -0.0728094  
C258     C      0.826470000000     0.452210000000     0.789810000000     0.0754107  
C259     C      0.790000000000     0.414900000000     0.790390000000     0.0753756  
C260     C      0.808720000000     0.469810000000     0.772630000000    -0.0869615  
C261     C      0.773360000000     0.494290000000     0.723310000000    -0.0307291  
C262     C      0.755230000000     0.511960000000     0.706530000000    -0.0321839  
C263     C      0.761600000000     0.478370000000     0.746180000000    -0.00295974 
C264     C      0.771630000000     0.431970000000     0.773280000000    -0.0873588  
C265     C      0.724950000000     0.514210000000     0.712310000000     0.000281164
C266     C      0.708370000000     0.533340000000     0.665260000000    -0.0831001  
C267     C      0.713180000000     0.498230000000     0.735130000000    -0.0327577  
C268     C      0.690200000000     0.551320000000     0.649000000000     0.0753471  
C269     C      0.665970000000     0.568930000000     0.690400000000     0.0567048  
C270     C      0.731290000000     0.480480000000     0.751850000000    -0.0304873  
C271     C      0.780900000000     0.459790000000     0.764200000000     0.052736   
C272     C      0.705730000000     0.533230000000     0.694650000000     0.0490524  
C273     C      0.967600000000     0.461570000000     0.909930000000    -0.0730116  
C274     C      0.043550000000     0.552710000000     0.061150000000     0.0786153  
C275     C      0.074910000000     0.565210000000     0.022860000000     0.0778599  
C276     C      0.026260000000     0.535340000000     0.043310000000    -0.0868948  
C277     C      0.004140000000     0.487440000000     0.003660000000    -0.0308267  
C278     C      0.986720000000     0.470640000000     0.985400000000    -0.0322467  
C279     C      0.014900000000     0.515040000000     0.995140000000    -0.00267078 
C280     C      0.058050000000     0.548110000000     0.004420000000    -0.0866335  
C281     C      0.979610000000     0.481090000000     0.958230000000     0.000321756
C282     C      0.936520000000     0.448110000000     0.948860000000    -0.0838222  
C283     C      0.990330000000     0.508730000000     0.949760000000    -0.0321023  
C284     C      0.919390000000     0.431490000000     0.930360000000     0.073048   
C285     C      0.949840000000     0.445070000000     0.891440000000     0.0568949  
C286     C      0.007800000000     0.525480000000     0.967990000000    -0.0299183  
C287     C      0.033340000000     0.532970000000     0.014540000000     0.0539323  
C288     C      0.961070000000     0.463240000000     0.938790000000     0.0489596  
Cd1      Cd     0.872270000000     0.372600000000     0.851560000000     0.519975   
Cd2      Cd     0.117910000000     0.622390000000     0.105790000000     0.516723   
Cd3      Cd     0.371510000000     0.873190000000     0.859770000000     0.513979   
Cd4      Cd     0.626140000000     0.123100000000     0.106060000000     0.516209   
Cd5      Cd     0.375080000000     0.375790000000     0.352490000000     0.520509   
Cd6      Cd     0.620520000000     0.625830000000     0.606250000000     0.520467   
Cd7      Cd     0.874280000000     0.874750000000     0.359520000000     0.513609   
Cd8      Cd     0.128740000000     0.125120000000     0.605270000000     0.513652   
H1       H      0.071060000000     0.102940000000     0.519650000000     0.035953   
H2       H      0.894170000000     0.946760000000     0.433190000000     0.0368402  
H3       H      0.043340000000     0.026130000000     0.463490000000     0.0443465  
H4       H      0.957840000000     0.973150000000     0.504400000000     0.0445332  
H5       H      0.923270000000     0.977570000000     0.463720000000     0.0577725  
H6       H      0.987630000000     0.004930000000     0.534740000000     0.0435275  
H7       H      0.002290000000     0.942600000000     0.427400000000     0.0683015  
H8       H      0.039880000000     0.072690000000     0.489760000000     0.0586439  
H9       H      0.037690000000     0.006460000000     0.555110000000     0.0591569  
H10      H      0.013160000000     0.995010000000     0.433070000000     0.0461984  
H11      H      0.068670000000     0.037410000000     0.584580000000     0.0354344  
H12      H      0.972910000000     0.933350000000     0.349310000000     0.152923   
H13      H      0.859420000000     0.800260000000     0.434040000000     0.0374713  
H14      H      0.644280000000     0.706410000000     0.542880000000     0.0383705  
H15      H      0.793690000000     0.731870000000     0.464870000000     0.0441311  
H16      H      0.711000000000     0.777220000000     0.517780000000     0.0447351  
H17      H      0.674690000000     0.737420000000     0.513850000000     0.0579927  
H18      H      0.741670000000     0.807910000000     0.487410000000     0.0434135  
H19      H      0.751980000000     0.694650000000     0.545710000000     0.0669926  
H20      H      0.830050000000     0.770670000000     0.466150000000     0.0596072  
H21      H      0.752060000000     0.816320000000     0.437960000000     0.0580783  
H22      H      0.763140000000     0.701280000000     0.495400000000     0.0451386  
H23      H      0.782180000000     0.845920000000     0.406620000000     0.0356792  
H24      H      0.733640000000     0.618330000000     0.557460000000     0.152101   
H25      H      0.325380000000     0.353420000000     0.442620000000     0.0392844  
H26      H      0.187530000000     0.148980000000     0.522910000000     0.0378322  
H27      H      0.246580000000     0.304670000000     0.480810000000     0.0459223  
H28      H      0.266380000000     0.197530000000     0.485860000000     0.0441531  
H29      H      0.216860000000     0.178740000000     0.491800000000     0.0579861  
H30      H      0.295290000000     0.228060000000     0.453820000000     0.0444916  
H31      H      0.222910000000     0.245460000000     0.555660000000     0.0681288  
H32      H      0.296770000000     0.323260000000     0.474860000000     0.0608339  
H33      H      0.289740000000     0.256610000000     0.410200000000     0.0604987  
H34      H      0.217540000000     0.274130000000     0.512760000000     0.0481389  
H35      H      0.318770000000     0.287170000000     0.378640000000     0.0407666  
H36      H      0.223350000000     0.190060000000     0.621660000000     0.153719   
H37      H      0.553740000000     0.544810000000     0.581690000000     0.0414109  
H38      H      0.465810000000     0.410690000000     0.395190000000     0.0446819  
H39      H      0.478860000000     0.520720000000     0.521320000000     0.0471158  
H40      H      0.518260000000     0.490310000000     0.427840000000     0.0452859  
H41      H      0.496630000000     0.440290000000     0.425230000000     0.0603002  
H42      H      0.549100000000     0.519370000000     0.459680000000     0.0439969  
H43      H      0.423520000000     0.496670000000     0.443700000000     0.0676651  
H44      H      0.523830000000     0.515270000000     0.550060000000     0.0612447  
H45      H      0.551350000000     0.569570000000     0.480010000000     0.0596883  
H46      H      0.448340000000     0.491120000000     0.489800000000     0.046627   
H47      H      0.581280000000     0.598580000000     0.512260000000     0.0360314  
H48      H      0.358350000000     0.451150000000     0.445240000000     0.153379   
H49      H      0.788500000000     0.894950000000     0.298890000000     0.0357969  
H50      H      0.711840000000     0.099940000000     0.163350000000     0.0378463  
H51      H      0.754820000000     0.946320000000     0.223110000000     0.0440277  
H52      H      0.744880000000     0.052780000000     0.243920000000     0.0446504  
H53      H      0.743320000000     0.070750000000     0.193180000000     0.0585115  
H54      H      0.775890000000     0.022350000000     0.274220000000     0.0431594  
H55      H      0.676120000000     0.005080000000     0.199910000000     0.0676016  
H56      H      0.757670000000     0.925170000000     0.268820000000     0.0588326  
H57      H      0.820800000000     0.995770000000     0.276040000000     0.0580308  
H58      H      0.723210000000     0.976710000000     0.193420000000     0.0463164  
H59      H      0.850490000000     0.965250000000     0.306930000000     0.0355883  
H60      H      0.637600000000     0.004490000000     0.131850000000     0.155211   
H61      H      0.585510000000     0.155120000000     0.197440000000     0.0391347  
H62      H      0.417550000000     0.341310000000     0.264550000000     0.0405419  
H63      H      0.505170000000     0.195090000000     0.241670000000     0.0450355  
H64      H      0.496850000000     0.301350000000     0.219340000000     0.0446031  
H65      H      0.445980000000     0.310310000000     0.233750000000     0.0590401  
H66      H      0.525650000000     0.269550000000     0.188380000000     0.0434897  
H67      H      0.484200000000     0.267470000000     0.305740000000     0.0667697  
H68      H      0.555830000000     0.185930000000     0.228100000000     0.0601201  
H69      H      0.520440000000     0.229690000000     0.154520000000     0.0584349  
H70      H      0.476430000000     0.226940000000     0.272680000000     0.0457456  
H71      H      0.550900000000     0.198840000000     0.124490000000     0.0360877  
H72      H      0.428330000000     0.264110000000     0.359970000000     0.1529     
H73      H      0.149280000000     0.064380000000     0.688930000000     0.0364615  
H74      H      0.342550000000     0.962520000000     0.810700000000     0.037536   
H75      H      0.198930000000     0.983980000000     0.721250000000     0.0442944  
H76      H      0.305790000000     0.004460000000     0.730260000000     0.0444152  
H77      H      0.313720000000     0.993190000000     0.779840000000     0.0579276  
H78      H      0.275540000000     0.035930000000     0.700270000000     0.0437577  
H79      H      0.267730000000     0.917240000000     0.749170000000     0.0666732  
H80      H      0.179230000000     0.033150000000     0.718900000000     0.0589559  
H81      H      0.248300000000     0.035480000000     0.656190000000     0.0589896  
H82      H      0.228910000000     0.953340000000     0.752180000000     0.0453205  
H83      H      0.217940000000     0.067300000000     0.627000000000     0.0355765  
H84      H      0.259670000000     0.866440000000     0.806270000000     0.152745   
H85      H      0.391940000000     0.785590000000     0.802050000000     0.0409781  
H86      H      0.595510000000     0.711110000000     0.663320000000     0.04149    
H87      H      0.464900000000     0.726480000000     0.769250000000     0.0453473  
H88      H      0.520730000000     0.772990000000     0.690880000000     0.0453749  
H89      H      0.565910000000     0.741950000000     0.693370000000     0.0603028  
H90      H      0.490830000000     0.803670000000     0.722030000000     0.0444322  
H91      H      0.494930000000     0.680120000000     0.688140000000     0.0692208  
H92      H      0.420840000000     0.755470000000     0.770140000000     0.0616054  
H93      H      0.488570000000     0.822050000000     0.769730000000     0.0590674  
H94      H      0.494450000000     0.695900000000     0.737880000000     0.0485874  
H95      H      0.458660000000     0.851960000000     0.801060000000     0.0364146  
H96      H      0.543910000000     0.608200000000     0.686270000000     0.16312    
H97      H      0.462060000000     0.897680000000     0.911710000000     0.0362187  
H98      H      0.535070000000     0.095200000000     0.058950000000     0.0384735  
H99      H      0.499730000000     0.942830000000     0.990030000000     0.0441588  
H100     H      0.493550000000     0.051350000000     0.981210000000     0.0446686  
H101     H      0.502280000000     0.065220000000     0.031290000000     0.0584705  
H102     H      0.461570000000     0.020530000000     0.952230000000     0.0435396  
H103     H      0.573550000000     0.007370000000     0.010610000000     0.067547   
H104     H      0.492970000000     0.927930000000     0.941690000000     0.0592812  
H105     H      0.420150000000     0.987500000000     0.954220000000     0.0581192  
H106     H      0.531910000000     0.973690000000     0.018710000000     0.0463269  
H107     H      0.390070000000     0.957070000000     0.923480000000     0.035495   
H108     H      0.621410000000     0.005140000000     0.072670000000     0.155639   
H109     H      0.901180000000     0.779980000000     0.315550000000     0.0361858  
H110     H      0.091720000000     0.675750000000     0.191210000000     0.0379862  
H111     H      0.937120000000     0.737310000000     0.234530000000     0.0444359  
H112     H      0.044130000000     0.756700000000     0.224740000000     0.0459984  
H113     H      0.062380000000     0.705910000000     0.222020000000     0.058774   
H114     H      0.014670000000     0.787600000000     0.256000000000     0.0461235  
H115     H      0.993860000000     0.708780000000     0.159710000000     0.0692786  
H116     H      0.929990000000     0.748470000000     0.284640000000     0.0591558  
H117     H      0.976130000000     0.824830000000     0.253450000000     0.0611141  
H118     H      0.966790000000     0.705780000000     0.204010000000     0.0463197  
H119     H      0.947280000000     0.855590000000     0.284930000000     0.0410026  
H120     H      0.004710000000     0.627800000000     0.130240000000     0.152268   
H121     H      0.283660000000     0.854110000000     0.918220000000     0.0370886  
H122     H      0.204730000000     0.648620000000     0.051740000000     0.0376779  
H123     H      0.249600000000     0.805600000000     0.997470000000     0.0441436  
H124     H      0.241720000000     0.698900000000     0.976990000000     0.0451228  
H125     H      0.237070000000     0.678910000000     0.024090000000     0.0577613  
H126     H      0.273890000000     0.729460000000     0.948050000000     0.0449003  
H127     H      0.172360000000     0.747530000000     0.023140000000     0.0674354  
H128     H      0.252450000000     0.824510000000     0.948700000000     0.0602191  
H129     H      0.319880000000     0.757740000000     0.951270000000     0.0587575  
H130     H      0.217580000000     0.774980000000     0.026640000000     0.0453707  
H131     H      0.350380000000     0.787760000000     0.920530000000     0.0362515  
H132     H      0.135650000000     0.744190000000     0.092270000000     0.152117   
H133     H      0.144550000000     0.530490000000     0.154550000000     0.0355929  
H134     H      0.346160000000     0.461590000000     0.298600000000     0.0441638  
H135     H      0.190640000000     0.494330000000     0.233750000000     0.044431   
H136     H      0.299040000000     0.498210000000     0.221480000000     0.0448448  
H137     H      0.315400000000     0.492340000000     0.269770000000     0.0602333  
H138     H      0.267750000000     0.529420000000     0.192250000000     0.0437715  
H139     H      0.254180000000     0.421380000000     0.259410000000     0.0668061  
H140     H      0.175340000000     0.499390000000     0.184000000000     0.0593362  
H141     H      0.234850000000     0.572180000000     0.196530000000     0.0588184  
H142     H      0.221930000000     0.463290000000     0.263210000000     0.0459658  
H143     H      0.203710000000     0.602590000000     0.166720000000     0.0356074  
H144     H      0.253780000000     0.380680000000     0.325480000000     0.153474   
H145     H      0.104690000000     0.180410000000     0.691400000000     0.0399375  
H146     H      0.899970000000     0.321410000000     0.765490000000     0.0408012  
H147     H      0.025750000000     0.204590000000     0.746510000000     0.0453608  
H148     H      0.975990000000     0.293600000000     0.709160000000     0.0461447  
H149     H      0.929720000000     0.292020000000     0.734460000000     0.0597276  
H150     H      0.007310000000     0.264520000000     0.677860000000     0.0457274  
H151     H      0.993150000000     0.280040000000     0.800620000000     0.0695495  
H152     H      0.073520000000     0.210010000000     0.721830000000     0.0618379  
H153     H      0.009020000000     0.215280000000     0.654980000000     0.0594088  
H154     H      0.994160000000     0.233310000000     0.777690000000     0.047503   
H155     H      0.040890000000     0.185720000000     0.624970000000     0.0362833  
H156     H      0.941420000000     0.275520000000     0.865260000000     0.160175   
H157     H      0.698080000000     0.139490000000     0.029450000000     0.0418045  
H158     H      0.805140000000     0.352460000000     0.929070000000     0.0380372  
H159     H      0.774330000000     0.199320000000     0.000470000000     0.0451551  
H160     H      0.733670000000     0.293160000000     0.963890000000     0.0442761  
H161     H      0.777000000000     0.323540000000     0.961880000000     0.0575693  
H162     H      0.704230000000     0.263300000000     0.996040000000     0.0438881  
H163     H      0.804950000000     0.244660000000     0.920080000000     0.067464   
H164     H      0.728930000000     0.169320000000     0.998830000000     0.0611886  
H165     H      0.703350000000     0.246530000000     0.045840000000     0.0581963  
H166     H      0.804020000000     0.229350000000     0.968610000000     0.0457912  
H167     H      0.672530000000     0.216080000000     0.075940000000     0.0352396  
H168     H      0.881070000000     0.258910000000     0.897220000000     0.154234   
H169     H      0.782050000000     0.393470000000     0.796930000000     0.037622   
H170     H      0.693560000000     0.550770000000     0.626270000000     0.0428331  
H171     H      0.721600000000     0.468700000000     0.769460000000     0.0448643  
H172     H      0.764990000000     0.524180000000     0.689220000000     0.0475097  
H173     H      0.724330000000     0.519420000000     0.654730000000     0.0601514  
H174     H      0.796570000000     0.492910000000     0.718220000000     0.0453877  
H175     H      0.682120000000     0.551230000000     0.729920000000     0.0690347  
H176     H      0.750440000000     0.423240000000     0.766980000000     0.0596228  
H177     H      0.816600000000     0.491320000000     0.766370000000     0.0608908  
H178     H      0.689890000000     0.499250000000     0.739940000000     0.0470733  
H179     H      0.847780000000     0.460830000000     0.795990000000     0.0395785  
H180     H      0.601820000000     0.560250000000     0.694180000000     0.155935   
H181     H      0.093850000000     0.576600000000     0.014190000000     0.0385479  
H182     H      0.900800000000     0.419940000000     0.939540000000     0.0381594  
H183     H      0.015350000000     0.546860000000     0.960960000000     0.0470506  
H184     H      0.979160000000     0.449270000000     0.992440000000     0.04564    
H185     H      0.930330000000     0.449220000000     0.970980000000     0.0583705  
H186     H      0.009540000000     0.478610000000     0.024310000000     0.0441078  
H187     H      0.986670000000     0.473130000000     0.901880000000     0.0695567  
H188     H      0.064530000000     0.546580000000     0.982400000000     0.0612972  
H189     H      0.007160000000     0.524250000000     0.051960000000     0.0599793  
H190     H      0.984840000000     0.517660000000     0.929180000000     0.047882   
H191     H      0.037180000000     0.554160000000     0.083230000000     0.038831   
H192     H      0.922730000000     0.476140000000     0.843560000000     0.153182   
N1       N      0.930930000000     0.926590000000     0.411910000000    -0.170974   
N2       N      0.072200000000     0.072320000000     0.554200000000    -0.179847   
N3       N      0.679980000000     0.681750000000     0.561230000000    -0.170126   
N4       N      0.822930000000     0.825140000000     0.417960000000    -0.1791     
N5       N      0.187220000000     0.179750000000     0.557570000000    -0.170756   
N6       N      0.324160000000     0.322470000000     0.408340000000    -0.177744   
N7       N      0.426210000000     0.435800000000     0.401910000000    -0.169163   
N8       N      0.569610000000     0.573840000000     0.549280000000    -0.178529   
N9       N      0.675280000000     0.069760000000     0.163680000000    -0.169833   
N10      N      0.821660000000     0.927920000000     0.305120000000    -0.179618   
N11      N      0.433550000000     0.322520000000     0.303480000000    -0.169855   
N12      N      0.570460000000     0.174850000000     0.158780000000    -0.178668   
N13      N      0.321820000000     0.921820000000     0.798720000000    -0.170541   
N14      N      0.181460000000     0.068130000000     0.655850000000    -0.179434   
N15      N      0.562930000000     0.677140000000     0.658100000000    -0.169569   
N16      N      0.423220000000     0.820900000000     0.803890000000    -0.178304   
N17      N      0.573780000000     0.068940000000     0.051510000000    -0.169458   
N18      N      0.423890000000     0.925230000000     0.915340000000    -0.179326   
N19      N      0.060180000000     0.674120000000     0.157190000000    -0.170169   
N20      N      0.922220000000     0.820010000000     0.302540000000    -0.178627   
N21      N      0.169450000000     0.680150000000     0.054280000000    -0.170029   
N22      N      0.319180000000     0.823010000000     0.917050000000    -0.179179   
N23      N      0.318270000000     0.423350000000     0.296590000000    -0.169597   
N24      N      0.171920000000     0.568740000000     0.158480000000    -0.179824   
N25      N      0.928600000000     0.317930000000     0.801710000000    -0.168842   
N26      N      0.074960000000     0.180790000000     0.656070000000    -0.178602   
N27      N      0.822170000000     0.315800000000     0.905320000000    -0.169898   
N28      N      0.683000000000     0.175640000000     0.054800000000    -0.179002   
N29      N      0.669520000000     0.569470000000     0.661180000000    -0.170021   
N30      N      0.817150000000     0.425000000000     0.798630000000    -0.179024   
N31      N      0.925980000000     0.429360000000     0.901990000000    -0.170115   
N32      N      0.067610000000     0.567590000000     0.050960000000    -0.178462   
O1       O      0.859840000000     0.416820000000     0.823820000000    -0.242604   
O2       O      0.857180000000     0.324620000000     0.870530000000    -0.22456    
O3       O      0.914870000000     0.404460000000     0.860480000000    -0.218748   
O4       O      0.886780000000     0.346320000000     0.808050000000    -0.240754   
O5       O      0.915730000000     0.341840000000     0.843370000000    -0.217294   
O6       O      0.885280000000     0.399520000000     0.895240000000    -0.24381    
O7       O      0.827120000000     0.382820000000     0.824030000000    -0.244728   
O8       O      0.835590000000     0.361790000000     0.888700000000    -0.242246   
O9       O      0.129300000000     0.669680000000     0.083010000000    -0.22447    
O10      O      0.160650000000     0.612720000000     0.136660000000    -0.246586   
O11      O      0.106360000000     0.599010000000     0.060020000000    -0.243523   
O12      O      0.102890000000     0.647360000000     0.149950000000    -0.247091   
O13      O      0.073410000000     0.651480000000     0.115030000000    -0.218618   
O14      O      0.077680000000     0.588000000000     0.094580000000    -0.238482   
O15      O      0.160170000000     0.635180000000     0.075420000000    -0.243716   
O16      O      0.131390000000     0.576290000000     0.129970000000    -0.249704   
O17      O      0.331770000000     0.879970000000     0.825070000000    -0.227178   
O18      O      0.414930000000     0.863020000000     0.829950000000    -0.244152   
O19      O      0.327610000000     0.863850000000     0.889220000000    -0.245002   
O20      O      0.380630000000     0.915300000000     0.891550000000    -0.246801   
O21      O      0.416530000000     0.884980000000     0.886480000000    -0.246119   
O22      O      0.361370000000     0.830860000000     0.890930000000    -0.246405   
O23      O      0.359460000000     0.917290000000     0.831440000000    -0.245833   
O24      O      0.382160000000     0.828980000000     0.831520000000    -0.237538   
O25      O      0.580740000000     0.109860000000     0.079940000000    -0.243871   
O26      O      0.605310000000     0.138700000000     0.151730000000    -0.243206   
O27      O      0.662100000000     0.131370000000     0.067600000000    -0.240708   
O28      O      0.668800000000     0.111720000000     0.136560000000    -0.245993   
O29      O      0.634510000000     0.079620000000     0.135580000000    -0.220791   
O30      O      0.650170000000     0.169540000000     0.091610000000    -0.248821   
O31      O      0.616940000000     0.080440000000     0.075380000000    -0.219547   
O32      O      0.588170000000     0.160770000000     0.115020000000    -0.241426   
O33      O      0.399870000000     0.360320000000     0.308570000000    -0.243221   
O34      O      0.350320000000     0.364510000000     0.397680000000    -0.239691   
O35      O      0.329420000000     0.383380000000     0.325240000000    -0.226459   
O36      O      0.421370000000     0.395610000000     0.372190000000    -0.237734   
O37      O      0.382030000000     0.418180000000     0.383970000000    -0.222185   
O38      O      0.361600000000     0.417340000000     0.321630000000    -0.238335   
O39      O      0.411440000000     0.336290000000     0.345780000000    -0.223951   
O40      O      0.346690000000     0.331470000000     0.365430000000    -0.235435   
O41      O      0.572690000000     0.638810000000     0.627050000000    -0.224247   
O42      O      0.600740000000     0.612660000000     0.559100000000    -0.247014   
O43      O      0.638320000000     0.608800000000     0.652480000000    -0.222926   
O44      O      0.669170000000     0.641000000000     0.588920000000    -0.226743   
O45      O      0.633400000000     0.668690000000     0.576680000000    -0.243174   
O46      O      0.654100000000     0.584590000000     0.616830000000    -0.238057   
O47      O      0.608310000000     0.667230000000     0.637970000000    -0.236201   
O48      O      0.587770000000     0.584810000000     0.593600000000    -0.237281   
O49      O      0.861850000000     0.920490000000     0.334120000000    -0.246834   
O50      O      0.884980000000     0.913460000000     0.394840000000    -0.24776    
O51      O      0.910320000000     0.865080000000     0.321700000000    -0.239281   
O52      O      0.828350000000     0.860910000000     0.383750000000    -0.245903   
O53      O      0.867110000000     0.837530000000     0.396940000000    -0.243929   
O54      O      0.887230000000     0.827230000000     0.337290000000    -0.245923   
O55      O      0.832070000000     0.884360000000     0.328040000000    -0.246901   
O56      O      0.921920000000     0.889150000000     0.379680000000    -0.226037   
O57      O      0.138910000000     0.094110000000     0.646770000000    -0.243595   
O58      O      0.162100000000     0.136270000000     0.565560000000    -0.243474   
O59      O      0.117060000000     0.153790000000     0.647880000000    -0.237821   
O60      O      0.098840000000     0.081070000000     0.594920000000    -0.25071    
O61      O      0.099320000000     0.114290000000     0.562650000000    -0.245828   
O62      O      0.084670000000     0.155440000000     0.614770000000    -0.247029   
O63      O      0.173510000000     0.096210000000     0.615860000000    -0.247704   
O64      O      0.156470000000     0.170640000000     0.595860000000    -0.227468   
O65      O      0.977560000000     0.869180000000     0.391760000000    -0.138004   
O66      O      0.969190000000     0.912070000000     0.351970000000    -0.240879   
O67      O      0.017010000000     0.912620000000     0.385910000000    -0.170302   
O68      O      0.717020000000     0.660210000000     0.618720000000    -0.135623   
O69      O      0.724390000000     0.619860000000     0.576390000000    -0.242367   
O70      O      0.765130000000     0.662160000000     0.586170000000    -0.168895   
O71      O      0.158250000000     0.230240000000     0.606730000000    -0.138881   
O72      O      0.202360000000     0.194290000000     0.625580000000    -0.242175   
O73      O      0.214140000000     0.249390000000     0.607590000000    -0.168585   
O74      O      0.371420000000     0.476560000000     0.375370000000    -0.138778   
O75      O      0.353670000000     0.450640000000     0.424770000000    -0.239732   
O76      O      0.373780000000     0.506700000000     0.423920000000    -0.168465   
O77      O      0.604520000000     0.054910000000     0.179490000000    -0.138039   
O78      O      0.623290000000     0.020460000000     0.135580000000    -0.238591   
O79      O      0.622880000000     0.000010000000     0.189380000000    -0.170097   
O80      O      0.467860000000     0.331120000000     0.365440000000    -0.1378     
O81      O      0.430650000000     0.283920000000     0.368380000000    -0.241631   
O82      O      0.488780000000     0.276790000000     0.357490000000    -0.169664   
O83      O      0.328420000000     0.854280000000     0.772690000000    -0.139894   
O84      O      0.279210000000     0.856770000000     0.805950000000    -0.240578   
O85      O      0.275680000000     0.862940000000     0.748990000000    -0.168505   
O86      O      0.512790000000     0.632710000000     0.621560000000    -0.138384   
O87      O      0.541840000000     0.606340000000     0.665480000000    -0.236372   
O88      O      0.487220000000     0.628560000000     0.672580000000    -0.168052   
O89      O      0.642590000000     0.062550000000     0.026120000000    -0.136963   
O90      O      0.633440000000     0.022840000000     0.068720000000    -0.237359   
O91      O      0.628040000000     0.007060000000     0.013710000000    -0.169298   
O92      O      0.032460000000     0.687010000000     0.089260000000    -0.123122   
O93      O      0.015890000000     0.635010000000     0.113630000000    -0.240472   
O94      O      0.980290000000     0.682510000000     0.115520000000    -0.167661   
O95      O      0.099240000000     0.699350000000     0.041810000000    -0.127278   
O96      O      0.120630000000     0.729130000000     0.087710000000    -0.238072   
O97      O      0.119750000000     0.754100000000     0.035700000000    -0.166199   
O98      O      0.308750000000     0.352700000000     0.279470000000    -0.138032   
O99      O      0.271000000000     0.367750000000     0.322190000000    -0.241203   
O100     O      0.253110000000     0.367350000000     0.267490000000    -0.169456   
O101     O      0.974790000000     0.344980000000     0.853450000000    -0.124371   
O102     O      0.943330000000     0.296640000000     0.870040000000    -0.235695   
O103     O      0.999290000000     0.291460000000     0.851340000000    -0.166859   
O104     O      0.829590000000     0.278790000000     0.844110000000    -0.138449   
O105     O      0.876650000000     0.268330000000     0.878800000000    -0.241152   
O106     O      0.830910000000     0.230280000000     0.876090000000    -0.169571   
O107     O      0.644540000000     0.623710000000     0.708920000000    -0.134702   
O108     O      0.604770000000     0.581780000000     0.692830000000    -0.242809   
O109     O      0.634890000000     0.576550000000     0.741830000000    -0.169633   
O110     O      0.971890000000     0.415520000000     0.843590000000    -0.1245     
O111     O      0.928820000000     0.456800000000     0.835900000000    -0.239053   
O112     O      0.984300000000     0.472900000000     0.849260000000    -0.16671    
S1       S      0.981410000000     0.904680000000     0.384820000000     0.274769   
S2       S      0.729330000000     0.655090000000     0.586080000000     0.274784   
S3       S      0.192980000000     0.220290000000     0.601920000000     0.275321   
S4       S      0.378090000000     0.473640000000     0.409750000000     0.275309   
S5       S      0.628690000000     0.029600000000     0.169680000000     0.275532   
S6       S      0.460030000000     0.298460000000     0.351840000000     0.27503    
S7       S      0.296080000000     0.870490000000     0.777150000000     0.275203   
S8       S      0.519010000000     0.633780000000     0.656100000000     0.276335   
S9       S      0.622430000000     0.034170000000     0.036530000000     0.275727   
S10      S      0.015180000000     0.671870000000     0.116500000000     0.274859   
S11      S      0.124750000000     0.722720000000     0.052880000000     0.276399   
S12      S      0.281270000000     0.374690000000     0.288650000000     0.27527    
S13      S      0.968120000000     0.309830000000     0.846830000000     0.275874   
S14      S      0.839910000000     0.265590000000     0.875260000000     0.274848   
S15      S      0.637380000000     0.587990000000     0.708600000000     0.274422   
S16      S      0.958800000000     0.447470000000     0.854780000000     0.275255   


