data_structure

_audit_creation_method RASPA-1.0
_audit_creation_date 2023-5-22
_audit_author_name 'Poobodin Mano'

_cell_length_a    46.3173
_cell_length_b    46.3125
_cell_length_c    45.6139
_cell_angle_alpha 90
_cell_angle_beta  90
_cell_angle_gamma 90
_cell_volume      97845

_symmetry_cell_setting          triclinic
_symmetry_space_group_name_Hall 'P 1'
_symmetry_space_group_name_H-M  'P 1'
_symmetry_Int_Tables_number     1

_symmetry_equiv_pos_as_xyz 'x,y,z'

loop_
_atom_site_label
_atom_site_type_symbol
_atom_site_fract_x
_atom_site_fract_y
_atom_site_fract_z
_atom_site_charge
C1       C      0.901920000000     0.397770000000     0.912280000000     0.346234   
C2       C      0.826410000000     0.399840000000     0.838570000000     0.348899   
C3       C      0.897310000000     0.327500000000     0.837910000000     0.347552   
C4       C      0.824250000000     0.332920000000     0.913490000000     0.346805   
C5       C      0.083280000000     0.576050000000     0.084820000000     0.350474   
C6       C      0.154600000000     0.579090000000     0.158750000000     0.347701   
C7       C      0.155620000000     0.649020000000     0.083770000000     0.346191   
C8       C      0.080810000000     0.651100000000     0.153750000000     0.346945   
C9       C      0.330990000000     0.830400000000     0.908130000000     0.348336   
C10      C      0.404120000000     0.902240000000     0.906710000000     0.347128   
C11      C      0.401350000000     0.832100000000     0.831810000000     0.348625   
C12      C      0.329490000000     0.903340000000     0.835780000000     0.348392   
C13      C      0.648040000000     0.153780000000     0.090390000000     0.346733   
C14      C      0.578250000000     0.079430000000     0.088100000000     0.348145   
C15      C      0.650820000000     0.077560000000     0.159820000000     0.348751   
C16      C      0.577730000000     0.150040000000     0.163810000000     0.348194   
C17      C      0.329430000000     0.404010000000     0.341400000000     0.346256   
C18      C      0.402150000000     0.330210000000     0.340530000000     0.347649   
C19      C      0.399930000000     0.403050000000     0.413470000000     0.349065   
C20      C      0.327590000000     0.328870000000     0.410390000000     0.348159   
C21      C      0.654420000000     0.578740000000     0.656860000000     0.346662   
C22      C      0.580430000000     0.653510000000     0.656960000000     0.347923   
C23      C      0.654780000000     0.654010000000     0.587790000000     0.34787    
C24      C      0.580670000000     0.580960000000     0.587140000000     0.347186   
C25      C      0.829800000000     0.899120000000     0.334900000000     0.345607   
C26      C      0.903720000000     0.827860000000     0.332690000000     0.349254   
C27      C      0.902040000000     0.902290000000     0.407020000000     0.349785   
C28      C      0.834730000000     0.828090000000     0.409280000000     0.345515   
C29      C      0.077320000000     0.080000000000     0.586620000000     0.347285   
C30      C      0.076790000000     0.151780000000     0.660620000000     0.348959   
C31      C      0.147800000000     0.081180000000     0.662990000000     0.34659    
C32      C      0.147180000000     0.151000000000     0.584260000000     0.348543   
C33      C      0.923470000000     0.958420000000     0.460550000000    -0.0913785  
C34      C      0.072920000000     0.043460000000     0.550250000000     0.073965   
C35      C      0.030920000000     0.065340000000     0.570040000000     0.0740867  
C36      C      0.056010000000     0.025910000000     0.532220000000    -0.0881617  
C37      C      0.014050000000     0.980270000000     0.510120000000    -0.0333531  
C38      C      0.996610000000     0.962820000000     0.492480000000    -0.032524   
C39      C      0.007490000000     0.009650000000     0.514060000000    -0.00349413 
C40      C      0.013380000000     0.048190000000     0.552240000000    -0.0879983  
C41      C      0.972220000000     0.974350000000     0.478320000000    -0.00437012 
C42      C      0.965590000000     0.935060000000     0.441090000000    -0.0888855  
C43      C      0.965760000000     0.003770000000     0.482160000000    -0.0325494  
C44      C      0.947790000000     0.917680000000     0.423880000000     0.0736736  
C45      C      0.905980000000     0.940730000000     0.443020000000     0.0894551  
C46      C      0.983170000000     0.021210000000     0.499840000000    -0.0331252  
C47      C      0.875110000000     0.944980000000     0.445620000000     0.0530598  
C48      C      0.025860000000     0.028150000000     0.533050000000     0.0511091  
C49      C      0.953540000000     0.955730000000     0.459730000000     0.0534087  
C50      C      0.807310000000     0.790230000000     0.475150000000    -0.0913048  
C51      C      0.664760000000     0.677780000000     0.542750000000     0.0737914  
C52      C      0.697420000000     0.682180000000     0.582520000000     0.0733145  
C53      C      0.682430000000     0.695100000000     0.525270000000    -0.088173   
C54      C      0.715520000000     0.744920000000     0.498550000000    -0.032886   
C55      C      0.733440000000     0.761850000000     0.480910000000    -0.0328163  
C56      C      0.727330000000     0.724720000000     0.518220000000    -0.00366658 
C57      C      0.715540000000     0.699690000000     0.565680000000    -0.0879673  
C58      C      0.763600000000     0.759130000000     0.482610000000    -0.00405747 
C59      C      0.776140000000     0.781110000000     0.434110000000    -0.0881981  
C60      C      0.775470000000     0.739130000000     0.502400000000    -0.032995   
C61      C      0.794100000000     0.798040000000     0.416630000000     0.0735191  
C62      C      0.824990000000     0.807330000000     0.457190000000     0.0886492  
C63      C      0.757540000000     0.722070000000     0.519950000000    -0.0328323  
C64      C      0.850050000000     0.820130000000     0.471010000000     0.0525563  
C65      C      0.708200000000     0.706330000000     0.536630000000     0.0508595  
C66      C      0.782610000000     0.777040000000     0.463720000000     0.0531229  
C67      C      0.169960000000     0.199780000000     0.524270000000    -0.0917253  
C68      C      0.320640000000     0.296570000000     0.450260000000     0.0744645  
C69      C      0.281340000000     0.308310000000     0.419150000000     0.0738623  
C70      C      0.302940000000     0.278570000000     0.467000000000    -0.0881865  
C71      C      0.264280000000     0.229510000000     0.487370000000    -0.0333252  
C72      C      0.246380000000     0.211890000000     0.504340000000    -0.0328105  
C73      C      0.254560000000     0.256540000000     0.477440000000    -0.00358121 
C74      C      0.263000000000     0.290570000000     0.435470000000    -0.08816    
C75      C      0.218350000000     0.220930000000     0.511830000000    -0.00435853 
C76      C      0.210750000000     0.187280000000     0.554180000000    -0.088898   
C77      C      0.208600000000     0.247930000000     0.501790000000    -0.0325618  
C78      C      0.192740000000     0.170240000000     0.571500000000     0.0729571  
C79      C      0.152240000000     0.182530000000     0.542020000000     0.0883338  
C80      C      0.226480000000     0.265520000000     0.484760000000    -0.033092   
C81      C      0.122080000000     0.180930000000     0.533830000000     0.0509417  
C82      C      0.273730000000     0.275420000000     0.459720000000     0.0511843  
C83      C      0.199460000000     0.202390000000     0.530290000000     0.0529811  
C84      C      0.424530000000     0.449990000000     0.474230000000    -0.0914156  
C85      C      0.573180000000     0.552110000000     0.544720000000     0.0746462  
C86      C      0.535240000000     0.558420000000     0.579030000000     0.0736756  
C87      C      0.555570000000     0.534640000000     0.527330000000    -0.087874   
C88      C      0.518930000000     0.485260000000     0.504280000000    -0.0331492  
C89      C      0.501010000000     0.467770000000     0.487180000000    -0.0327263  
C90      C      0.508050000000     0.510320000000     0.517730000000    -0.00352474 
C91      C      0.517030000000     0.541050000000     0.562160000000    -0.0880678  
C92      C      0.471780000000     0.474920000000     0.483160000000    -0.00429232 
C93      C      0.462440000000     0.444430000000     0.438760000000    -0.0890264  
C94      C      0.460910000000     0.500000000000     0.496570000000    -0.0326692  
C95      C      0.444270000000     0.426890000000     0.422120000000     0.073553   
C96      C      0.406640000000     0.432250000000     0.457170000000     0.0893705  
C97      C      0.478830000000     0.517500000000     0.513640000000    -0.0330273  
C98      C      0.377900000000     0.427010000000     0.468460000000     0.0537471  
C99      C      0.527110000000     0.528900000000     0.535950000000     0.0510978  
C100     C      0.452680000000     0.456220000000     0.465130000000     0.0534727  
C101     C      0.765330000000     0.926360000000     0.295710000000    -0.0913396  
C102     C      0.696830000000     0.066940000000     0.180290000000     0.0737738  
C103     C      0.657350000000     0.035470000000     0.188910000000     0.0745435  
C104     C      0.714860000000     0.049480000000     0.197270000000    -0.0881163  
C105     C      0.742520000000     0.017910000000     0.248510000000    -0.033087   
C106     C      0.760000000000     0.000300000000     0.265950000000    -0.03261    
C107     C      0.722690000000     0.005700000000     0.228740000000    -0.00349316 
C108     C      0.674780000000     0.017490000000     0.205970000000    -0.087803   
C109     C      0.758080000000     0.970060000000     0.264010000000    -0.00431462 
C110     C      0.805470000000     0.958220000000     0.287760000000    -0.0888456  
C111     C      0.738330000000     0.957860000000     0.244150000000    -0.0327583  
C112     C      0.822500000000     0.940400000000     0.305320000000     0.0731666  
C113     C      0.782860000000     0.908750000000     0.313280000000     0.0881388  
C114     C      0.720830000000     0.975460000000     0.226740000000    -0.0331935  
C115     C      0.769190000000     0.883590000000     0.326040000000     0.0522537  
C116     C      0.703900000000     0.024420000000     0.210400000000     0.0510879  
C117     C      0.776540000000     0.951310000000     0.282710000000     0.0529704  
C118     C      0.538200000000     0.178140000000     0.228330000000    -0.0917218  
C119     C      0.426070000000     0.321110000000     0.295320000000     0.0731276  
C120     C      0.430370000000     0.287750000000     0.334530000000     0.0729669  
C121     C      0.443480000000     0.303750000000     0.277600000000    -0.0884677  
C122     C      0.465910000000     0.253730000000     0.240650000000    -0.0335708  
C123     C      0.483090000000     0.235710000000     0.223330000000    -0.0328995  
C124     C      0.473150000000     0.259010000000     0.270090000000    -0.00384768 
C125     C      0.447990000000     0.269970000000     0.317470000000    -0.0884255  
C126     C      0.507980000000     0.222660000000     0.235020000000    -0.0045464  
C127     C      0.531680000000     0.209920000000     0.187280000000    -0.0892851  
C128     C      0.515290000000     0.228120000000     0.264420000000    -0.0328749  
C129     C      0.548810000000     0.191620000000     0.170350000000     0.0725714  
C130     C      0.555440000000     0.160090000000     0.210920000000     0.0880077  
C131     C      0.498040000000     0.246040000000     0.281770000000    -0.0334107  
C132     C      0.566700000000     0.134390000000     0.224950000000     0.0510732  
C133     C      0.454680000000     0.277830000000     0.288610000000     0.0506146  
C134     C      0.526190000000     0.203350000000     0.216640000000     0.0527711  
C135     C      0.197330000000     0.058180000000     0.722270000000    -0.0917471  
C136     C      0.296950000000     0.909210000000     0.795910000000     0.0743897  
C137     C      0.308830000000     0.949320000000     0.825870000000     0.0739842  
C138     C      0.278740000000     0.926430000000     0.778880000000    -0.0881137  
C139     C      0.255320000000     0.971710000000     0.736980000000    -0.0333185  
C140     C      0.237200000000     0.989280000000     0.720190000000    -0.0327823  
C141     C      0.256090000000     0.974430000000     0.767670000000    -0.00362042 
C142     C      0.290760000000     0.967160000000     0.809340000000    -0.0880722  
C143     C      0.219410000000     0.009980000000     0.733680000000    -0.00444431 
C144     C      0.185100000000     0.017640000000     0.691900000000    -0.089091   
C145     C      0.220130000000     0.012660000000     0.764380000000    -0.0328692  
C146     C      0.167630000000     0.035650000000     0.675010000000     0.0722361  
C147     C      0.179640000000     0.075900000000     0.704970000000     0.0880021  
C148     C      0.238270000000     0.995100000000     0.781170000000    -0.0332761  
C149     C      0.177930000000     0.105980000000     0.713460000000     0.0510766  
C150     C      0.275420000000     0.955790000000     0.785510000000     0.0510021  
C151     C      0.200320000000     0.028820000000     0.715760000000     0.0527896  
C152     C      0.448340000000     0.808700000000     0.770580000000    -0.0912159  
C153     C      0.550120000000     0.660370000000     0.698450000000     0.0734481  
C154     C      0.557480000000     0.698780000000     0.664890000000     0.0731775  
C155     C      0.532080000000     0.677750000000     0.715500000000    -0.0883675  
C156     C      0.482060000000     0.714410000000     0.737390000000    -0.0333337  
C157     C      0.464350000000     0.732120000000     0.754490000000    -0.0329636  
C158     C      0.507740000000     0.725230000000     0.725160000000    -0.00379506 
C159     C      0.539630000000     0.716780000000     0.681480000000    -0.088329   
C160     C      0.471930000000     0.761050000000     0.759810000000    -0.00418121 
C161     C      0.440160000000     0.769160000000     0.803580000000    -0.0886347  
C162     C      0.497600000000     0.771860000000     0.747550000000    -0.0327208  
C163     C      0.422900000000     0.787120000000     0.820770000000     0.0733043  
C164     C      0.430920000000     0.826390000000     0.788210000000     0.0892334  
C165     C      0.515270000000     0.754170000000     0.730400000000    -0.0330067  
C166     C      0.426960000000     0.855840000000     0.778330000000     0.0531746  
C167     C      0.526670000000     0.706350000000     0.707140000000     0.050753   
C168     C      0.453210000000     0.779860000000     0.778200000000     0.053134   
C169     C      0.468940000000     0.937170000000     0.938310000000    -0.0917225  
C170     C      0.531930000000     0.063760000000     0.072210000000     0.0732705  
C171     C      0.574090000000     0.043940000000     0.050680000000     0.0735453  
C172     C      0.514510000000     0.046440000000     0.054440000000    -0.0880396  
C173     C      0.483090000000     0.019290000000     0.003030000000    -0.0333168  
C174     C      0.466000000000     0.001710000000     0.985170000000    -0.032842   
C175     C      0.508920000000     0.008730000000     0.015210000000    -0.00362891 
C176     C      0.557330000000     0.026390000000     0.032500000000    -0.0882251  
C177     C      0.474390000000     0.973200000000     0.978950000000    -0.00457656 
C178     C      0.426340000000     0.953980000000     0.962980000000    -0.0892723  
C179     C      0.500190000000     0.962620000000     0.991080000000    -0.0329576  
C180     C      0.409670000000     0.936240000000     0.944970000000     0.0726693  
C181     C      0.451750000000     0.919620000000     0.920330000000     0.0881881  
C182     C      0.517220000000     0.980150000000     0.009050000000    -0.0331847  
C183     C      0.466810000000     0.902420000000     0.898670000000     0.0520049  
C184     C      0.527130000000     0.027420000000     0.034260000000     0.0506146  
C185     C      0.456310000000     0.954560000000     0.959840000000     0.0529358  
C186     C      0.015960000000     0.688590000000     0.182130000000    -0.0917874  
C187     C      0.928860000000     0.783890000000     0.324220000000     0.0734799  
C188     C      0.929530000000     0.820800000000     0.288200000000     0.073261   
C189     C      0.946240000000     0.766370000000     0.306620000000    -0.0880928  
C190     C      0.996510000000     0.741270000000     0.272430000000    -0.0333505  
C191     C      0.013960000000     0.723990000000     0.254630000000    -0.0328835  
C192     C      0.974210000000     0.757980000000     0.260200000000    -0.00369443 
C193     C      0.946960000000     0.803870000000     0.270070000000    -0.0881873  
C194     C      0.009550000000     0.723000000000     0.224150000000    -0.00455612 
C195     C      0.057620000000     0.702130000000     0.210290000000    -0.089355   
C196     C      0.987300000000     0.739780000000     0.211900000000    -0.0328827  
C197     C      0.074530000000     0.684300000000     0.192620000000     0.072615   
C198     C      0.033400000000     0.670830000000     0.164610000000     0.0878857  
C199     C      0.969840000000     0.757050000000     0.229710000000    -0.0332526  
C200     C      0.018940000000     0.655180000000     0.141370000000     0.05097    
C201     C      0.955580000000     0.776280000000     0.279180000000     0.0506021  
C202     C      0.027960000000     0.704400000000     0.205250000000     0.0527419  
C203     C      0.206960000000     0.673010000000     0.026530000000    -0.0918745  
C204     C      0.285240000000     0.810270000000     0.919990000000     0.07297    
C205     C      0.326250000000     0.798550000000     0.948750000000     0.0732327  
C206     C      0.267820000000     0.792690000000     0.937480000000    -0.0884482  
C207     C      0.233850000000     0.767220000000     0.988290000000    -0.0334835  
C208     C      0.216630000000     0.749160000000     0.005520000000    -0.0329527  
C209     C      0.261700000000     0.758550000000     0.979740000000    -0.00390441 
C210     C      0.309470000000     0.780710000000     0.966640000000    -0.0884591  
C211     C      0.226820000000     0.721980000000     0.014530000000    -0.00464821 
C212     C      0.191900000000     0.713510000000     0.055620000000    -0.0891581  
C213     C      0.254710000000     0.713360000000     0.006080000000    -0.0329986  
C214     C      0.174640000000     0.695030000000     0.072240000000     0.0722202  
C215     C      0.189400000000     0.654840000000     0.043470000000     0.0880568  
C216     C      0.271970000000     0.731450000000     0.988920000000    -0.0333206  
C217     C      0.189350000000     0.624570000000     0.035520000000     0.051629   
C218     C      0.279880000000     0.777590000000     0.961110000000     0.0506138  
C219     C      0.208350000000     0.702600000000     0.032490000000     0.0527273  
C220     C      0.291860000000     0.468570000000     0.312490000000    -0.0917087  
C221     C      0.199540000000     0.556470000000     0.169070000000     0.073261   
C222     C      0.160590000000     0.551770000000     0.202470000000     0.0734598  
C223     C      0.217030000000     0.539400000000     0.187000000000    -0.0881622  
C224     C      0.242750000000     0.488880000000     0.220450000000    -0.033345   
C225     C      0.259920000000     0.471630000000     0.238540000000    -0.0328581  
C226     C      0.224330000000     0.509870000000     0.232550000000    -0.00379226 
C227     C      0.177490000000     0.534660000000     0.220940000000    -0.0883481  
C228     C      0.259120000000     0.474980000000     0.269160000000    -0.00451437 
C229     C      0.280860000000     0.427250000000     0.282720000000    -0.0892491  
C230     C      0.240700000000     0.495950000000     0.281270000000    -0.0329706  
C231     C      0.298260000000     0.410390000000     0.300870000000     0.072745   
C232     C      0.309270000000     0.451210000000     0.330440000000     0.0881097  
C233     C      0.223490000000     0.513180000000     0.263170000000    -0.0331675  
C234     C      0.323340000000     0.465520000000     0.354800000000     0.0519061  
C235     C      0.206070000000     0.528220000000     0.213280000000     0.0507428  
C236     C      0.277490000000     0.456690000000     0.288380000000     0.052865   
C237     C      0.925680000000     0.263480000000     0.798790000000    -0.0914515  
C238     C      0.064040000000     0.198080000000     0.679050000000     0.0747523  
C239     C      0.037550000000     0.156750000000     0.693850000000     0.0744274  
C240     C      0.046550000000     0.215790000000     0.696340000000    -0.0880715  
C241     C      0.016670000000     0.244010000000     0.748640000000    -0.0333041  
C242     C      0.998780000000     0.261260000000     0.766020000000    -0.0324828  
C243     C      0.004900000000     0.222240000000     0.730830000000    -0.00358654 
C244     C      0.019510000000     0.173850000000     0.711180000000    -0.088291   
C245     C      0.968670000000     0.257270000000     0.765840000000    -0.00432743 
C246     C      0.955290000000     0.304820000000     0.788530000000    -0.0889215  
C247     C      0.956920000000     0.235610000000     0.747800000000    -0.0326214  
C248     C      0.937430000000     0.321460000000     0.806430000000     0.0725673  
C249     C      0.907910000000     0.280660000000     0.816540000000     0.0882555  
C250     C      0.974830000000     0.218230000000     0.730590000000    -0.033225   
C251     C      0.883910000000     0.266190000000     0.830620000000     0.0522136  
C252     C      0.023900000000     0.203730000000     0.712580000000     0.0513831  
C253     C      0.949620000000     0.275450000000     0.784560000000     0.0529375  
C254     C      0.759580000000     0.307790000000     0.953840000000    -0.0913369  
C255     C      0.681320000000     0.192700000000     0.086760000000     0.0734117  
C256     C      0.664150000000     0.169810000000     0.043650000000     0.0732398  
C257     C      0.698370000000     0.211350000000     0.070040000000    -0.0884954  
C258     C      0.744980000000     0.235270000000     0.029960000000    -0.033      
C259     C      0.762370000000     0.253080000000     0.012660000000    -0.0327754  
C260     C      0.716650000000     0.228560000000     0.021250000000    -0.00379929 
C261     C      0.680900000000     0.188120000000     0.026260000000    -0.0883821  
C262     C      0.751830000000     0.264650000000     0.986240000000    -0.00404315 
C263     C      0.799500000000     0.275950000000     0.962990000000    -0.0882033  
C264     C      0.723420000000     0.258140000000     0.977640000000    -0.0327211  
C265     C      0.816730000000     0.293130000000     0.945020000000     0.0749372  
C266     C      0.777340000000     0.324800000000     0.935870000000     0.0887758  
C267     C      0.706040000000     0.240280000000     0.994930000000    -0.0329576  
C268     C      0.764080000000     0.349990000000     0.922750000000     0.0516148  
C269     C      0.698350000000     0.209180000000     0.039400000000     0.0508656  
C270     C      0.770550000000     0.283090000000     0.967520000000     0.0534501  
C271     C      0.696890000000     0.515640000000     0.681860000000    -0.0915801  
C272     C      0.800500000000     0.443440000000     0.830540000000     0.0749893  
C273     C      0.801270000000     0.407290000000     0.793730000000     0.0744061  
C274     C      0.783540000000     0.461190000000     0.812780000000    -0.0879172  
C275     C      0.763010000000     0.500320000000     0.763560000000    -0.0333328  
C276     C      0.746270000000     0.517960000000     0.745420000000    -0.0327486  
C277     C      0.757410000000     0.470550000000     0.765530000000    -0.00348445 
C278     C      0.784240000000     0.424450000000     0.775420000000    -0.087978   
C279     C      0.723500000000     0.506260000000     0.728850000000    -0.0044106  
C280     C      0.697130000000     0.552520000000     0.718860000000    -0.0890111  
C281     C      0.717910000000     0.476470000000     0.730830000000    -0.0326775  
C282     C      0.680230000000     0.569830000000     0.700660000000     0.0724921  
C283     C      0.679860000000     0.533410000000     0.663930000000     0.087729   
C284     C      0.734690000000     0.458820000000     0.748930000000    -0.0330714  
C285     C      0.672070000000     0.521820000000     0.635530000000     0.0508277  
C286     C      0.775240000000     0.451820000000     0.784820000000     0.0512564  
C287     C      0.705630000000     0.525050000000     0.709620000000     0.0527257  
C288     C      0.947640000000     0.421920000000     0.974180000000    -0.0915917  
C289     C      0.056590000000     0.567410000000     0.041170000000     0.0757922  
C290     C      0.058830000000     0.531400000000     0.078060000000     0.0749067  
C291     C      0.039150000000     0.549680000000     0.023860000000    -0.0878375  
C292     C      0.016750000000     0.500700000000     0.985600000000    -0.0332614  
C293     C      0.998930000000     0.482940000000     0.968690000000    -0.0326306  
C294     C      0.012390000000     0.503230000000     0.015980000000    -0.00350403 
C295     C      0.041300000000     0.513180000000     0.061390000000    -0.0881258  
C296     C      0.976250000000     0.467370000000     0.981760000000    -0.00433585 
C297     C      0.947910000000     0.457590000000     0.935970000000    -0.0890814  
C298     C      0.971920000000     0.469920000000     0.012170000000    -0.032621   
C299     C      0.929720000000     0.439990000000     0.919420000000     0.0727239  
C300     C      0.929270000000     0.404610000000     0.957180000000     0.087941   
C301     C      0.989820000000     0.487590000000     0.029080000000    -0.0329313  
C302     C      0.920870000000     0.377170000000     0.969800000000     0.0512676  
C303     C      0.031220000000     0.522240000000     0.033940000000     0.0516821  
C304     C      0.957060000000     0.448710000000     0.963720000000     0.0529477  
Cd1      Cd     0.862970000000     0.364680000000     0.875400000000     0.511989   
Cd2      Cd     0.118690000000     0.613660000000     0.120430000000     0.511241   
Cd3      Cd     0.366330000000     0.866790000000     0.870990000000     0.511211   
Cd4      Cd     0.613660000000     0.115040000000     0.125750000000     0.510358   
Cd5      Cd     0.365090000000     0.366030000000     0.376450000000     0.511173   
Cd6      Cd     0.617960000000     0.616920000000     0.622510000000     0.51003    
Cd7      Cd     0.868370000000     0.864060000000     0.370180000000     0.511784   
Cd8      Cd     0.112760000000     0.116000000000     0.623770000000     0.511579   
H1       H      0.020410000000     0.080500000000     0.584670000000     0.0351714  
H2       H      0.958360000000     0.902070000000     0.409770000000     0.0354728  
H3       H      0.977780000000     0.043860000000     0.502070000000     0.0429395  
H4       H      0.001960000000     0.940150000000     0.490360000000     0.0425013  
H5       H      0.988780000000     0.932480000000     0.439470000000     0.0573028  
H6       H      0.032400000000     0.970620000000     0.521100000000     0.0422338  
H7       H      0.913560000000     0.974010000000     0.475190000000     0.0613799  
H8       H      0.990150000000     0.050380000000     0.553850000000     0.057523   
H9       H      0.066550000000     0.010930000000     0.517450000000     0.0570097  
H10      H      0.947430000000     0.013460000000     0.471180000000     0.0428389  
H11      H      0.096180000000     0.041140000000     0.548890000000     0.0346409  
H12      H      0.703870000000     0.677570000000     0.604890000000     0.0341445  
H13      H      0.788020000000     0.800420000000     0.393790000000     0.0396757  
H14      H      0.767380000000     0.706420000000     0.534490000000     0.042224   
H15      H      0.723670000000     0.777390000000     0.466180000000     0.043402   
H16      H      0.757380000000     0.770980000000     0.424320000000     0.0585671  
H17      H      0.692380000000     0.747920000000     0.497000000000     0.0422467  
H18      H      0.812610000000     0.787550000000     0.498160000000     0.0613686  
H19      H      0.735030000000     0.708220000000     0.575540000000     0.0569085  
H20      H      0.676060000000     0.699260000000     0.502820000000     0.0569657  
H21      H      0.798630000000     0.736280000000     0.503940000000     0.0429849  
H22      H      0.645070000000     0.669450000000     0.533040000000     0.034759   
H23      H      0.272230000000     0.319600000000     0.400490000000     0.0344627  
H24      H      0.202680000000     0.159180000000     0.589870000000     0.0362506  
H25      H      0.218500000000     0.286400000000     0.477800000000     0.0429543  
H26      H      0.254400000000     0.191030000000     0.511300000000     0.0420304  
H27      H      0.233400000000     0.188940000000     0.559860000000     0.0576326  
H28      H      0.285640000000     0.221790000000     0.481720000000     0.0421645  
H29      H      0.160770000000     0.210880000000     0.505510000000     0.0607899  
H30      H      0.240620000000     0.288500000000     0.428900000000     0.0572019  
H31      H      0.312040000000     0.267540000000     0.485780000000     0.0576019  
H32      H      0.187300000000     0.255760000000     0.507550000000     0.0429783  
H33      H      0.343090000000     0.298510000000     0.456700000000     0.0355209  
H34      H      0.526650000000     0.567330000000     0.599210000000     0.0341418  
H35      H      0.452980000000     0.418390000000     0.401810000000     0.0352993  
H36      H      0.469870000000     0.536890000000     0.523300000000     0.0424301  
H37      H      0.509950000000     0.448380000000     0.477510000000     0.0423316  
H38      H      0.483970000000     0.448990000000     0.430730000000     0.057557   
H39      H      0.541220000000     0.478870000000     0.507340000000     0.0428283  
H40      H      0.416600000000     0.458600000000     0.494830000000     0.0614305  
H41      H      0.495310000000     0.536880000000     0.569870000000     0.0571145  
H42      H      0.564130000000     0.526010000000     0.507040000000     0.0575439  
H43      H      0.438600000000     0.506340000000     0.493520000000     0.0435253  
H44      H      0.595040000000     0.556090000000     0.537210000000     0.0364369  
H45      H      0.634890000000     0.029430000000     0.186170000000     0.0357975  
H46      H      0.844840000000     0.946770000000     0.308350000000     0.0358171  
H47      H      0.706090000000     0.965370000000     0.211410000000     0.0422582  
H48      H      0.774670000000     0.010400000000     0.281330000000     0.0425937  
H49      H      0.815140000000     0.977160000000     0.277860000000     0.0572668  
H50      H      0.744190000000     0.041120000000     0.250890000000     0.0426948  
H51      H      0.742780000000     0.920800000000     0.292530000000     0.0609549  
H52      H      0.665330000000     0.998510000000     0.215990000000     0.0577646  
H53      H      0.737330000000     0.055460000000     0.199800000000     0.0568958  
H54      H      0.736640000000     0.934650000000     0.241760000000     0.0426299  
H55      H      0.706150000000     0.086130000000     0.170480000000     0.0343395  
H56      H      0.425560000000     0.280810000000     0.356700000000     0.0341946  
H57      H      0.552440000000     0.197900000000     0.147740000000     0.0349192  
H58      H      0.504420000000     0.250030000000     0.304250000000     0.0423638  
H59      H      0.476570000000     0.231630000000     0.200910000000     0.0416798  
H60      H      0.523140000000     0.229390000000     0.177400000000     0.0568613  
H61      H      0.446640000000     0.263100000000     0.231140000000     0.0419681  
H62      H      0.533840000000     0.172260000000     0.250930000000     0.0606943  
H63      H      0.455940000000     0.249950000000     0.326730000000     0.0569955  
H64      H      0.448400000000     0.310770000000     0.255500000000     0.056742   
H65      H      0.534580000000     0.218850000000     0.273980000000     0.0425723  
H66      H      0.417870000000     0.341040000000     0.286020000000     0.0341942  
H67      H      0.320360000000     0.958980000000     0.844090000000     0.0345805  
H68      H      0.156370000000     0.025790000000     0.656720000000     0.0352619  
H69      H      0.238000000000     0.997430000000     0.804800000000     0.0421229  
H70      H      0.237510000000     0.986980000000     0.696560000000     0.0421986  
H71      H      0.186440000000     0.994940000000     0.686340000000     0.0569598  
H72      H      0.269090000000     0.956320000000     0.725860000000     0.0426461  
H73      H      0.209150000000     0.067430000000     0.740530000000     0.0608899  
H74      H      0.289130000000     0.989810000000     0.815010000000     0.0572069  
H75      H      0.267030000000     0.916660000000     0.760880000000     0.057071   
H76      H      0.206380000000     0.028080000000     0.775500000000     0.0425244  
H77      H      0.298810000000     0.886580000000     0.790120000000     0.0350813  
H78      H      0.567030000000     0.707660000000     0.645150000000     0.0339406  
H79      H      0.413500000000     0.777670000000     0.840320000000     0.0355073  
H80      H      0.535130000000     0.763040000000     0.721670000000     0.0426101  
H81      H      0.444510000000     0.723230000000     0.763220000000     0.0418529  
H82      H      0.443600000000     0.747050000000     0.810520000000     0.0572334  
H83      H      0.475420000000     0.692330000000     0.733410000000     0.041985   
H84      H      0.457800000000     0.817390000000     0.750680000000     0.0611366  
H85      H      0.535750000000     0.738640000000     0.674020000000     0.0570733  
H86      H      0.522790000000     0.668920000000     0.735360000000     0.0569341  
H87      H      0.504330000000     0.793900000000     0.751600000000     0.043579   
H88      H      0.553860000000     0.638410000000     0.705770000000     0.0346337  
H89      H      0.597370000000     0.042490000000     0.048590000000     0.034358   
H90      H      0.386510000000     0.936570000000     0.948480000000     0.03528    
H91      H      0.536700000000     0.971130000000     0.018460000000     0.0420938  
H92      H      0.446420000000     0.010600000000     0.975820000000     0.0421605  
H93      H      0.415730000000     0.966890000000     0.979600000000     0.0571289  
H94      H      0.476270000000     0.041330000000     0.006910000000     0.0418369  
H95      H      0.492170000000     0.937540000000     0.935250000000     0.0611958  
H96      H      0.568040000000     0.012360000000     0.016930000000     0.0568943  
H97      H      0.491280000000     0.047690000000     0.056870000000     0.0565851  
H98      H      0.507020000000     0.940610000000     0.987050000000     0.0428201  
H99      H      0.521310000000     0.078090000000     0.087600000000     0.0342881  
H100     H      0.923450000000     0.842060000000     0.280390000000     0.0341746  
H101     H      0.097420000000     0.683400000000     0.197570000000     0.0352317  
H102     H      0.952680000000     0.769410000000     0.219590000000     0.0421475  
H103     H      0.030690000000     0.711110000000     0.264830000000     0.0418539  
H104     H      0.067900000000     0.714300000000     0.227670000000     0.0570181  
H105     H      0.000700000000     0.741730000000     0.295790000000     0.0419223  
H106     H      0.992920000000     0.689680000000     0.178010000000     0.0609023  
H107     H      0.953960000000     0.812580000000     0.249210000000     0.0567604  
H108     H      0.952020000000     0.745030000000     0.314380000000     0.0570348  
H109     H      0.983510000000     0.739780000000     0.188470000000     0.0424683  
H110     H      0.922080000000     0.775380000000     0.345270000000     0.0345502  
H111     H      0.349050000000     0.800440000000     0.953800000000     0.0343396  
H112     H      0.162420000000     0.704690000000     0.089990000000     0.0351395  
H113     H      0.293210000000     0.724020000000     0.982490000000     0.0421913  
H114     H      0.195150000000     0.756340000000     0.011460000000     0.0419343  
H115     H      0.192590000000     0.736240000000     0.061190000000     0.057087   
H116     H      0.225410000000     0.788080000000     0.981830000000     0.0418459  
H117     H      0.219250000000     0.664110000000     0.008400000000     0.060869   
H118     H      0.319610000000     0.769710000000     0.984890000000     0.0569127  
H119     H      0.245120000000     0.790620000000     0.932190000000     0.0568601  
H120     H      0.263310000000     0.692680000000     0.012910000000     0.0425594  
H121     H      0.275090000000     0.821460000000     0.901840000000     0.033953   
H122     H      0.138530000000     0.556130000000     0.209110000000     0.0344512  
H123     H      0.300020000000     0.387660000000     0.295450000000     0.035536   
H124     H      0.209750000000     0.529330000000     0.273190000000     0.0421475  
H125     H      0.274080000000     0.455860000000     0.228490000000     0.0419294  
H126     H      0.269830000000     0.417090000000     0.264490000000     0.0571699  
H127     H      0.243680000000     0.485560000000     0.196960000000     0.0421891  
H128     H      0.289870000000     0.491470000000     0.317110000000     0.0610473  
H129     H      0.168030000000     0.526180000000     0.240880000000     0.0569744  
H130     H      0.239120000000     0.535300000000     0.180430000000     0.0572566  
H131     H      0.239350000000     0.498880000000     0.304780000000     0.0428177  
H132     H      0.208850000000     0.564740000000     0.148940000000     0.0353181  
H133     H      0.033490000000     0.133690000000     0.693400000000     0.0348858  
H134     H      0.942860000000     0.344130000000     0.808670000000     0.0351051  
H135     H      0.965100000000     0.201910000000     0.716750000000     0.0428144  
H136     H      0.008630000000     0.277400000000     0.779990000000     0.0421798  
H137     H      0.973320000000     0.315120000000     0.777620000000     0.0571056  
H138     H      0.039800000000     0.247370000000     0.749550000000     0.0429791  
H139     H      0.921070000000     0.240620000000     0.796520000000     0.0608804  
H140     H      0.002420000000     0.163650000000     0.723660000000     0.0576119  
H141     H      0.050500000000     0.238840000000     0.696630000000     0.057827   
H142     H      0.933810000000     0.232260000000     0.746680000000     0.0426959  
H143     H      0.081230000000     0.208260000000     0.666660000000     0.0357494  
H144     H      0.651070000000     0.153700000000     0.032640000000     0.0342479  
H145     H      0.838980000000     0.286400000000     0.942160000000     0.0397489  
H146     H      0.684210000000     0.235790000000     0.987740000000     0.0423155  
H147     H      0.784060000000     0.257920000000     0.020050000000     0.0428898  
H148     H      0.808790000000     0.256830000000     0.972890000000     0.0589973  
H149     H      0.753910000000     0.226390000000     0.049960000000     0.0423019  
H150     H      0.737270000000     0.314010000000     0.957390000000     0.0611668  
H151     H      0.680510000000     0.185440000000     0.002680000000     0.0572228  
H152     H      0.711240000000     0.227550000000     0.081090000000     0.0571293  
H153     H      0.714740000000     0.266470000000     0.957280000000     0.043183   
H154     H      0.681920000000     0.195110000000     0.110400000000     0.0345316  
H155     H      0.807960000000     0.386330000000     0.785570000000     0.0349243  
H156     H      0.674160000000     0.590870000000     0.709070000000     0.0355151  
H157     H      0.729550000000     0.436050000000     0.750280000000     0.0430121  
H158     H      0.751450000000     0.540730000000     0.744060000000     0.041935   
H159     H      0.703120000000     0.560550000000     0.740320000000     0.0571837  
H160     H      0.780640000000     0.509960000000     0.775710000000     0.0421833  
H161     H      0.703620000000     0.494580000000     0.673980000000     0.0607573  
H162     H      0.778570000000     0.416490000000     0.753850000000     0.0574699  
H163     H      0.776730000000     0.482020000000     0.821070000000     0.0576532  
H164     H      0.700250000000     0.466830000000     0.718740000000     0.0429046  
H165     H      0.806440000000     0.451500000000     0.852020000000     0.0360522  
H166     H      0.066240000000     0.523570000000     0.099160000000     0.0347503  
H167     H      0.923190000000     0.448090000000     0.898120000000     0.0355793  
H168     H      0.985650000000     0.489410000000     0.052380000000     0.0430921  
H169     H      0.003160000000     0.481130000000     0.945410000000     0.0420138  
H170     H      0.954360000000     0.478310000000     0.927140000000     0.0572404  
H171     H      0.034220000000     0.512160000000     0.974930000000     0.0426732  
H172     H      0.954850000000     0.414290000000     0.995440000000     0.060852   
H173     H      0.035950000000     0.491990000000     0.069840000000     0.0575736  
H174     H      0.031560000000     0.557650000000     0.002900000000     0.0579589  
H175     H      0.954370000000     0.458630000000     0.022870000000     0.0429898  
H176     H      0.062100000000     0.588570000000     0.032650000000     0.0362416  
N1       N      0.918200000000     0.920280000000     0.424630000000    -0.17885    
N2       N      0.060450000000     0.062990000000     0.569020000000    -0.179405   
N3       N      0.846220000000     0.949100000000     0.448190000000    -0.0843065  
N4       N      0.818300000000     0.811280000000     0.427830000000    -0.177873   
N5       N      0.672250000000     0.671310000000     0.571100000000    -0.179914   
N6       N      0.873490000000     0.832060000000     0.484110000000    -0.0850683  
N7       N      0.163670000000     0.167840000000     0.565820000000    -0.17934    
N8       N      0.309910000000     0.311300000000     0.426540000000    -0.179772   
N9       N      0.093860000000     0.179530000000     0.525990000000    -0.0859704  
N10      N      0.416580000000     0.420650000000     0.431020000000    -0.17871    
N11      N      0.563080000000     0.563890000000     0.570350000000    -0.179474   
N12      N      0.351010000000     0.422210000000     0.479200000000    -0.0841988  
N13      N      0.811580000000     0.915780000000     0.318020000000    -0.178586   
N14      N      0.668290000000     0.060020000000     0.176240000000    -0.179794   
N15      N      0.756240000000     0.860070000000     0.337940000000    -0.0857145  
N16      N      0.560800000000     0.166900000000     0.181830000000    -0.179357   
N17      N      0.419500000000     0.313100000000     0.323520000000    -0.180146   
N18      N      0.577170000000     0.110370000000     0.238260000000    -0.0857522  
N19      N      0.164900000000     0.064620000000     0.681120000000    -0.179181   
N20      N      0.311840000000     0.920580000000     0.819220000000    -0.179598   
N21      N      0.176440000000     0.134130000000     0.721580000000    -0.0856848  
N22      N      0.418280000000     0.815570000000     0.813470000000    -0.178647   
N23      N      0.562720000000     0.670830000000     0.673370000000    -0.17997    
N24      N      0.423350000000     0.883390000000     0.768920000000    -0.0846372  
N25      N      0.422000000000     0.919130000000     0.923720000000    -0.178982   
N26      N      0.561480000000     0.062450000000     0.070370000000    -0.179963   
N27      N      0.481060000000     0.886380000000     0.878420000000    -0.0848704  
N28      N      0.062780000000     0.668590000000     0.169980000000    -0.179042   
N29      N      0.920620000000     0.810880000000     0.315070000000    -0.180322   
N30      N      0.005230000000     0.640590000000     0.119660000000    -0.086192   
N31      N      0.173190000000     0.665910000000     0.066420000000    -0.178865   
N32      N      0.314220000000     0.813140000000     0.925590000000    -0.180216   
N33      N      0.189430000000     0.596250000000     0.027930000000    -0.0856929  
N34      N      0.312500000000     0.422010000000     0.324570000000    -0.178784   
N35      N      0.171530000000     0.562530000000     0.176730000000    -0.179938   
N36      N      0.336460000000     0.479050000000     0.377570000000    -0.0847884  
N37      N      0.913870000000     0.309750000000     0.820440000000    -0.179123   
N38      N      0.059550000000     0.168810000000     0.677830000000    -0.179535   
N39      N      0.861490000000     0.252480000000     0.843750000000    -0.0851857  
N40      N      0.805980000000     0.317320000000     0.931330000000    -0.17806    
N41      N      0.664430000000     0.172060000000     0.073650000000    -0.17983    
N42      N      0.751520000000     0.373560000000     0.910530000000    -0.0857529  
N43      N      0.671430000000     0.560570000000     0.673430000000    -0.179189   
N44      N      0.809390000000     0.416760000000     0.821020000000    -0.179351   
N45      N      0.664860000000     0.510810000000     0.608960000000    -0.0860088  
N46      N      0.920210000000     0.413750000000     0.929740000000    -0.179078   
N47      N      0.066320000000     0.558330000000     0.068050000000    -0.17955    
N48      N      0.913090000000     0.351510000000     0.981770000000    -0.0854479  
O1       O      0.834320000000     0.407930000000     0.863870000000    -0.243609   
O2       O      0.850310000000     0.325530000000     0.909510000000    -0.23837    
O3       O      0.894440000000     0.406180000000     0.886970000000    -0.246549   
O4       O      0.904010000000     0.353630000000     0.842590000000    -0.250581   
O5       O      0.874510000000     0.319000000000     0.850470000000    -0.239825   
O6       O      0.891240000000     0.373910000000     0.920290000000    -0.24273    
O7       O      0.835370000000     0.375240000000     0.830410000000    -0.249074   
O8       O      0.816330000000     0.355310000000     0.899760000000    -0.241796   
O9       O      0.128630000000     0.585050000000     0.164990000000    -0.247686   
O10      O      0.107500000000     0.648780000000     0.159490000000    -0.246411   
O11      O      0.092940000000     0.568300000000     0.109580000000    -0.249246   
O12      O      0.152700000000     0.622130000000     0.079890000000    -0.23848    
O13      O      0.141190000000     0.659500000000     0.104870000000    -0.24902    
O14      O      0.090150000000     0.601260000000     0.076580000000    -0.24464    
O15      O      0.163900000000     0.589280000000     0.134790000000    -0.248709   
O16      O      0.072010000000     0.636130000000     0.132330000000    -0.243412   
O17      O      0.377040000000     0.901500000000     0.910640000000    -0.24684    
O18      O      0.332640000000     0.876680000000     0.830400000000    -0.245662   
O19      O      0.357760000000     0.833720000000     0.912630000000    -0.24875    
O20      O      0.389550000000     0.821660000000     0.854540000000    -0.248802   
O21      O      0.396660000000     0.858670000000     0.827420000000    -0.238467   
O22      O      0.320680000000     0.843970000000     0.886430000000    -0.251263   
O23      O      0.413400000000     0.886460000000     0.886110000000    -0.241648   
O24      O      0.343550000000     0.913050000000     0.857480000000    -0.247784   
O25      O      0.605590000000     0.078320000000     0.087500000000    -0.247191   
O26      O      0.590470000000     0.127510000000     0.172670000000    -0.242964   
O27      O      0.632270000000     0.134380000000     0.079080000000    -0.24862    
O28      O      0.660090000000     0.100420000000     0.147850000000    -0.249009   
O29      O      0.624330000000     0.072030000000     0.155830000000    -0.246822   
O30      O      0.647800000000     0.155160000000     0.118140000000    -0.246251   
O31      O      0.567380000000     0.097160000000     0.106160000000    -0.249793   
O32      O      0.581740000000     0.156230000000     0.137060000000    -0.249409   
O33      O      0.392070000000     0.353970000000     0.331350000000    -0.248323   
O34      O      0.353960000000     0.332390000000     0.416770000000    -0.245255   
O35      O      0.332120000000     0.377350000000     0.335630000000    -0.244097   
O36      O      0.409340000000     0.392790000000     0.389520000000    -0.250014   
O37      O      0.374340000000     0.395950000000     0.419980000000    -0.23824    
O38      O      0.343370000000     0.412770000000     0.363550000000    -0.241391   
O39      O      0.395090000000     0.323180000000     0.366370000000    -0.250694   
O40      O      0.318590000000     0.342620000000     0.388200000000    -0.249378   
O41      O      0.585990000000     0.627710000000     0.664280000000    -0.24587    
O42      O      0.606510000000     0.586370000000     0.579870000000    -0.241858   
O43      O      0.647170000000     0.603610000000     0.665800000000    -0.247012   
O44      O      0.661290000000     0.646860000000     0.613790000000    -0.250282   
O45      O      0.631160000000     0.644060000000     0.578110000000    -0.246517   
O46      O      0.644740000000     0.571850000000     0.631910000000    -0.244037   
O47      O      0.592290000000     0.662320000000     0.633580000000    -0.251616   
O48      O      0.572120000000     0.592290000000     0.610900000000    -0.24972    
O49      O      0.895530000000     0.852790000000     0.324950000000    -0.251152   
O50      O      0.856630000000     0.842090000000     0.417860000000    -0.239453   
O51      O      0.855850000000     0.906190000000     0.339490000000    -0.246541   
O52      O      0.913630000000     0.883260000000     0.390850000000    -0.249443   
O53      O      0.874760000000     0.903460000000     0.405790000000    -0.239423   
O54      O      0.821920000000     0.875730000000     0.346770000000    -0.237692   
O55      O      0.895430000000     0.819670000000     0.357780000000    -0.250894   
O56      O      0.828660000000     0.830770000000     0.382310000000    -0.239052   
O57      O      0.073770000000     0.124600000000     0.659490000000    -0.245977   
O58      O      0.158170000000     0.137210000000     0.605500000000    -0.248842   
O59      O      0.066520000000     0.098070000000     0.604380000000    -0.245752   
O60      O      0.144460000000     0.108070000000     0.666480000000    -0.242179   
O61      O      0.134550000000     0.070470000000     0.641260000000    -0.248575   
O62      O      0.104650000000     0.078650000000     0.586130000000    -0.246105   
O63      O      0.096620000000     0.162280000000     0.644720000000    -0.246954   
O64      O      0.120140000000     0.148370000000     0.581500000000    -0.242853   


