data_structure

_audit_creation_method RASPA-1.0
_audit_creation_date 2023-5-22
_audit_author_name 'Poobodin Mano'

_cell_length_a    47.079
_cell_length_b    43.6936
_cell_length_c    46.9929
_cell_angle_alpha 90
_cell_angle_beta  90
_cell_angle_gamma 90
_cell_volume      96666.8

_symmetry_cell_setting          triclinic
_symmetry_space_group_name_Hall 'P 1'
_symmetry_space_group_name_H-M  'P 1'
_symmetry_Int_Tables_number     1

_symmetry_equiv_pos_as_xyz 'x,y,z'

loop_
_atom_site_label
_atom_site_type_symbol
_atom_site_fract_x
_atom_site_fract_y
_atom_site_fract_z
_atom_site_charge
C1       C      0.897120000000     0.412580000000     0.878390000000     0.35094    
C2       C      0.808830000000     0.413390000000     0.819470000000     0.34619    
C3       C      0.885730000000     0.344730000000     0.809980000000     0.34399    
C4       C      0.820500000000     0.344740000000     0.892090000000     0.348936   
C5       C      0.065450000000     0.596750000000     0.058560000000     0.346435   
C6       C      0.124940000000     0.605130000000     0.144840000000     0.349648   
C7       C      0.129440000000     0.673080000000     0.065760000000     0.349919   
C8       C      0.051670000000     0.670010000000     0.133220000000     0.351278   
C9       C      0.303490000000     0.850940000000     0.884500000000     0.345133   
C10      C      0.305280000000     0.925440000000     0.813680000000     0.345969   
C11      C      0.373960000000     0.924540000000     0.892260000000     0.351807   
C12      C      0.379860000000     0.857840000000     0.814280000000     0.35083    
C13      C      0.637020000000     0.170810000000     0.067480000000     0.348006   
C14      C      0.556070000000     0.100620000000     0.067550000000     0.346047   
C15      C      0.629470000000     0.091390000000     0.132590000000     0.349951   
C16      C      0.565600000000     0.180070000000     0.134070000000     0.350861   
C17      C      0.312390000000     0.431820000000     0.316200000000     0.347628   
C18      C      0.387830000000     0.357840000000     0.312060000000     0.345918   
C19      C      0.384330000000     0.438620000000     0.380890000000     0.348958   
C20      C      0.324920000000     0.349610000000     0.385050000000     0.350448   
C21      C      0.631330000000     0.595580000000     0.645570000000     0.352453   
C22      C      0.563630000000     0.672800000000     0.649520000000     0.346989   
C23      C      0.631400000000     0.674890000000     0.575420000000     0.353003   
C24      C      0.560370000000     0.602480000000     0.571620000000     0.347288   
C25      C      0.876530000000     0.843160000000     0.317090000000     0.348176   
C26      C      0.807750000000     0.919470000000     0.314900000000     0.346006   
C27      C      0.805630000000     0.845700000000     0.388240000000     0.346626   
C28      C      0.880500000000     0.918670000000     0.387170000000     0.353614   
C29      C      0.058410000000     0.170840000000     0.624000000000     0.35005    
C30      C      0.141010000000     0.104950000000     0.624500000000     0.348784   
C31      C      0.061990000000     0.102320000000     0.555980000000     0.343838   
C32      C      0.138660000000     0.174220000000     0.555710000000     0.344946   
C33      C      0.928550000000     0.943890000000     0.444820000000    -0.138469   
C34      C      0.030580000000     0.098010000000     0.516560000000     0.071017   
C35      C      0.038060000000     0.055410000000     0.546900000000     0.0707382  
C36      C      0.011780000000     0.080980000000     0.499880000000    -0.0887914  
C37      C      0.987030000000     0.033830000000     0.459330000000    -0.0362682  
C38      C      0.969130000000     0.015670000000     0.442670000000    -0.0305063  
C39      C      0.986310000000     0.031800000000     0.489180000000    -0.00327714 
C40      C      0.019360000000     0.037730000000     0.530720000000    -0.0888595  
C41      C      0.950080000000     0.995060000000     0.455460000000    -0.0135668  
C42      C      0.919200000000     0.985540000000     0.412880000000    -0.102272   
C43      C      0.949090000000     0.993330000000     0.485320000000    -0.0304001  
C44      C      0.902920000000     0.965900000000     0.396140000000     0.0777572  
C45      C      0.913050000000     0.924080000000     0.427050000000     0.186172   
C46      C      0.966990000000     0.011490000000     0.501980000000    -0.0366946  
C47      C      0.005960000000     0.050440000000     0.506860000000     0.0485109  
C48      C      0.931980000000     0.974740000000     0.437710000000     0.0708647  
C49      C      0.655490000000     0.735750000000     0.526400000000    -0.138514   
C50      C      0.798030000000     0.801110000000     0.416210000000     0.071911   
C51      C      0.761650000000     0.838400000000     0.412180000000     0.0716738  
C52      C      0.781020000000     0.783470000000     0.434200000000    -0.0890033  
C53      C      0.747210000000     0.761960000000     0.485530000000    -0.0363718  
C54      C      0.730080000000     0.745430000000     0.504320000000    -0.0303299  
C55      C      0.735540000000     0.775410000000     0.461010000000    -0.00332375 
C56      C      0.744030000000     0.821270000000     0.430020000000    -0.0886935  
C57      C      0.700870000000     0.741880000000     0.499000000000    -0.0136883  
C58      C      0.692340000000     0.698440000000     0.532830000000    -0.102625   
C59      C      0.689240000000     0.755140000000     0.474340000000    -0.0303533  
C60      C      0.675050000000     0.683080000000     0.552180000000     0.0779383  
C61      C      0.638720000000     0.720570000000     0.546780000000     0.18636    
C62      C      0.706370000000     0.771750000000     0.455590000000    -0.0365388  
C63      C      0.753690000000     0.793530000000     0.441400000000     0.0490074  
C64      C      0.682540000000     0.724890000000     0.519380000000     0.0709101  
C65      C      0.282310000000     0.284040000000     0.410000000000    -0.138291   
C66      C      0.167340000000     0.218450000000     0.549020000000     0.0713736  
C67      C      0.165500000000     0.180250000000     0.513230000000     0.0711968  
C68      C      0.186340000000     0.235640000000     0.532710000000    -0.0886515  
C69      C      0.238980000000     0.257150000000     0.500850000000    -0.0365168  
C70      C      0.258090000000     0.273850000000     0.484200000000    -0.0303892  
C71      C      0.215310000000     0.242850000000     0.488360000000    -0.00328918 
C72      C      0.184380000000     0.196890000000     0.496330000000    -0.0890192  
C73      C      0.253930000000     0.276720000000     0.454680000000    -0.0135594  
C74      C      0.285850000000     0.321920000000     0.446830000000    -0.102036   
C75      C      0.230210000000     0.262460000000     0.442230000000    -0.0302805  
C76      C      0.304040000000     0.338830000000     0.429500000000     0.077557   
C77      C      0.301480000000     0.300900000000     0.393210000000     0.186253   
C78      C      0.211150000000     0.245700000000     0.458870000000    -0.0364972  
C79      C      0.195090000000     0.224930000000     0.506010000000     0.0487974  
C80      C      0.274170000000     0.294550000000     0.436900000000     0.0707425  
C81      C      0.405850000000     0.494280000000     0.435970000000    -0.137847   
C82      C      0.554910000000     0.569140000000     0.531980000000     0.0717733  
C83      C      0.514230000000     0.589180000000     0.555170000000     0.0716945  
C84      C      0.537740000000     0.553260000000     0.512750000000    -0.0889843  
C85      C      0.495610000000     0.508690000000     0.486280000000    -0.0364286  
C86      C      0.478060000000     0.493150000000     0.467120000000    -0.0301435  
C87      C      0.489500000000     0.538980000000     0.494260000000    -0.00318221 
C88      C      0.496430000000     0.573730000000     0.536210000000    -0.0887052  
C89      C      0.454030000000     0.507560000000     0.455420000000    -0.0134635  
C90      C      0.447050000000     0.472280000000     0.413930000000    -0.101917   
C91      C      0.448000000000     0.537910000000     0.463360000000    -0.0301763  
C92      C      0.429350000000     0.456380000000     0.395320000000     0.077467   
C93      C      0.388370000000     0.479040000000     0.416230000000     0.186042   
C94      C      0.465490000000     0.553410000000     0.482600000000    -0.0366207  
C95      C      0.508110000000     0.555500000000     0.514670000000     0.0489388  
C96      C      0.435400000000     0.490990000000     0.434990000000     0.0705714  
C97      C      0.685050000000     0.036840000000     0.155110000000    -0.138564   
C98      C      0.771950000000     0.957130000000     0.307800000000     0.07176    
C99      C      0.793350000000     0.932910000000     0.268070000000     0.0717385  
C100     C      0.754380000000     0.974160000000     0.289810000000    -0.0883756  
C101     C      0.730340000000     0.018680000000     0.246560000000    -0.0365     
C102     C      0.712360000000     0.034980000000     0.228380000000    -0.0301857  
C103     C      0.737450000000     0.988050000000     0.240710000000    -0.0029268  
C104     C      0.776250000000     0.949690000000     0.249470000000    -0.0884911  
C105     C      0.701230000000     0.021110000000     0.203810000000    -0.0140044  
C106     C      0.659690000000     0.055710000000     0.195810000000    -0.102709   
C107     C      0.708420000000     0.990580000000     0.197840000000    -0.0300971  
C108     C      0.641760000000     0.071860000000     0.177640000000     0.0775749  
C109     C      0.666230000000     0.052610000000     0.137040000000     0.185911   
C110     C      0.726240000000     0.974210000000     0.216110000000    -0.0365341  
C111     C      0.756300000000     0.970510000000     0.260220000000     0.0487417  
C112     C      0.681920000000     0.038350000000     0.184660000000     0.0710262  
C113     C      0.541400000000     0.227680000000     0.194270000000    -0.138856   
C114     C      0.396670000000     0.334310000000     0.267320000000     0.0713062  
C115     C      0.430230000000     0.329350000000     0.304640000000     0.0710138  
C116     C      0.413760000000     0.316770000000     0.249320000000    -0.0886993  
C117     C      0.460980000000     0.294190000000     0.210990000000    -0.0361532  
C118     C      0.478670000000     0.277060000000     0.193190000000    -0.0305595  
C119     C      0.458520000000     0.286980000000     0.240070000000    -0.00330904 
C120     C      0.447950000000     0.311920000000     0.287150000000    -0.0886649  
C121     C      0.494510000000     0.252470000000     0.204100000000    -0.0137845  
C122     C      0.505300000000     0.225600000000     0.158260000000    -0.10248    
C123     C      0.492070000000     0.245180000000     0.233110000000    -0.0305426  
C124     C      0.523640000000     0.208550000000     0.141200000000     0.0773738  
C125     C      0.560110000000     0.211790000000     0.176200000000     0.186524   
C126     C      0.474210000000     0.262140000000     0.250870000000    -0.0364125  
C127     C      0.439840000000     0.305390000000     0.259080000000     0.0485898  
C128     C      0.513850000000     0.234730000000     0.185390000000     0.0710586  
C129     C      0.189140000000     0.044690000000     0.651210000000    -0.13825    
C130     C      0.275870000000     0.968740000000     0.805240000000     0.0716594  
C131     C      0.285340000000     0.933770000000     0.767850000000     0.0710623  
C132     C      0.259400000000     0.986730000000     0.787040000000    -0.0885551  
C133     C      0.240640000000     0.029400000000     0.739660000000    -0.0364161  
C134     C      0.224980000000     0.047410000000     0.720750000000    -0.0305139  
C135     C      0.238860000000     0.997290000000     0.738680000000    -0.00323543 
C136     C      0.269040000000     0.951220000000     0.749060000000    -0.0887601  
C137     C      0.207190000000     0.033740000000     0.700360000000    -0.0135379  
C138     C      0.177740000000     0.079880000000     0.688720000000    -0.102232   
C139     C      0.205290000000     0.001650000000     0.699440000000    -0.0307147  
C140     C      0.162360000000     0.097390000000     0.669300000000     0.0774822  
C141     C      0.174500000000     0.063310000000     0.631670000000     0.185807   
C142     C      0.220920000000     0.983630000000     0.718390000000    -0.0363247  
C143     C      0.255880000000     0.978140000000     0.758520000000     0.0486762  
C144     C      0.190890000000     0.052870000000     0.679920000000     0.07067    
C145     C      0.441590000000     0.836960000000     0.769580000000    -0.138149   
C146     C      0.525940000000     0.678280000000     0.682870000000     0.0717033  
C147     C      0.552760000000     0.721660000000     0.668870000000     0.0715964  
C148     C      0.508690000000     0.696580000000     0.700080000000    -0.0885874  
C149     C      0.484320000000     0.738560000000     0.745490000000    -0.0362874  
C150     C      0.466040000000     0.757180000000     0.761300000000    -0.030313   
C151     C      0.494630000000     0.748290000000     0.718890000000    -0.00328859 
C152     C      0.536010000000     0.740600000000     0.685920000000    -0.0891497  
C153     C      0.457720000000     0.786000000000     0.750940000000    -0.013663   
C154     C      0.413280000000     0.792540000000     0.779430000000    -0.102288   
C155     C      0.468230000000     0.795860000000     0.724500000000    -0.0303591  
C156     C      0.394070000000     0.811010000000     0.794020000000     0.077809   
C157     C      0.421470000000     0.855450000000     0.783580000000     0.185805   
C158     C      0.486410000000     0.777220000000     0.708650000000    -0.0363795  
C159     C      0.513450000000     0.728210000000     0.701600000000     0.0488782  
C160     C      0.437510000000     0.805360000000     0.767240000000     0.0708754  
C161     C      0.414330000000     0.948030000000     0.956210000000    -0.137963   
C162     C      0.530640000000     0.092940000000     0.024440000000     0.0715742  
C163     C      0.526510000000     0.056850000000     0.061900000000     0.0709118  
C164     C      0.512660000000     0.075420000000     0.007320000000    -0.0888488  
C165     C      0.488680000000     0.024500000000     0.970530000000    -0.0364365  
C166     C      0.470800000000     0.006860000000     0.953370000000    -0.0303395  
C167     C      0.482540000000     0.028800000000     0.999530000000    -0.00323557 
C168     C      0.508380000000     0.038810000000     0.045380000000    -0.0888102  
C169     C      0.446330000000     0.993110000000     0.964790000000    -0.013521   
C170     C      0.419990000000     0.985210000000     0.919070000000    -0.102187   
C171     C      0.440280000000     0.997270000000     0.993850000000    -0.0300735  
C172     C      0.401510000000     0.968270000000     0.902100000000     0.0777016  
C173     C      0.394800000000     0.931850000000     0.939220000000     0.185532   
C174     C      0.458200000000     0.014870000000     0.011020000000    -0.0366941  
C175     C      0.501390000000     0.047910000000     0.017660000000     0.0487734  
C176     C      0.426910000000     0.975000000000     0.946340000000     0.0707342  
C177     C      0.986480000000     0.694150000000     0.170900000000    -0.138614   
C178     C      0.921480000000     0.830430000000     0.297420000000     0.0717978  
C179     C      0.880950000000     0.800800000000     0.285610000000     0.0720466  
C180     C      0.938500000000     0.812270000000     0.279930000000    -0.0891357  
C181     C      0.971770000000     0.760020000000     0.253560000000    -0.0366682  
C182     C      0.988830000000     0.743110000000     0.235000000000    -0.0302902  
C183     C      0.944210000000     0.768870000000     0.245520000000    -0.00333404 
C184     C      0.897350000000     0.782200000000     0.267860000000    -0.0890262  
C185     C      0.978720000000     0.734670000000     0.207970000000    -0.0140179  
C186     C      0.025710000000     0.726050000000     0.184470000000    -0.1031     
C187     C      0.951020000000     0.743170000000     0.200080000000    -0.0302099  
C188     C      0.042850000000     0.710340000000     0.165240000000     0.0766489  
C189     C      0.003820000000     0.679330000000     0.150770000000     0.185029   
C190     C      0.933950000000     0.760060000000     0.218650000000    -0.0366131  
C191     C      0.926480000000     0.787880000000     0.264790000000     0.0490319  
C192     C      0.997290000000     0.717770000000     0.187800000000     0.0707316  
C193     C      0.158710000000     0.738170000000     0.025000000000    -0.138895   
C194     C      0.293070000000     0.802630000000     0.905300000000     0.0711851  
C195     C      0.261510000000     0.844300000000     0.911920000000     0.0708421  
C196     C      0.275780000000     0.783810000000     0.921950000000    -0.0886971  
C197     C      0.244970000000     0.755230000000     0.971860000000    -0.0362665  
C198     C      0.227960000000     0.737730000000     0.989990000000    -0.0305907  
C199     C      0.232680000000     0.776170000000     0.952740000000    -0.00333932 
C200     C      0.243820000000     0.826190000000     0.928810000000    -0.0887688  
C201     C      0.198260000000     0.740900000000     0.989560000000    -0.0138514  
C202     C      0.185510000000     0.692620000000     0.015310000000    -0.102741   
C203     C      0.185910000000     0.761540000000     0.970270000000    -0.0306131  
C204     C      0.168690000000     0.676850000000     0.034820000000     0.0774424  
C205     C      0.142900000000     0.722290000000     0.045650000000     0.186363   
C206     C      0.202910000000     0.778900000000     0.951990000000    -0.0364048  
C207     C      0.250880000000     0.795550000000     0.934130000000     0.0485938  
C208     C      0.180310000000     0.723500000000     0.009860000000     0.0710634  
C209     C      0.148750000000     0.550110000000     0.199560000000    -0.138169   
C210     C      0.303760000000     0.471480000000     0.282680000000     0.0712842  
C211     C      0.265080000000     0.444180000000     0.302670000000     0.0713311  
C212     C      0.285150000000     0.489060000000     0.266310000000    -0.0888454  
C213     C      0.242490000000     0.509820000000     0.222100000000    -0.036206   
C214     C      0.223750000000     0.527080000000     0.205580000000    -0.03026    
C215     C      0.235720000000     0.502230000000     0.250390000000    -0.00327793 
C216     C      0.245870000000     0.461290000000     0.286550000000    -0.0886812  
C217     C      0.197720000000     0.537090000000     0.216890000000    -0.0136941  
C218     C      0.188250000000     0.579690000000     0.182640000000    -0.102486   
C219     C      0.190840000000     0.529410000000     0.245100000000    -0.0303973  
C220     C      0.169650000000     0.596670000000     0.165850000000     0.077596   
C221     C      0.130150000000     0.568140000000     0.183160000000     0.185876   
C222     C      0.209640000000     0.512210000000     0.261680000000    -0.0366077  
C223     C      0.255800000000     0.484010000000     0.268000000000     0.0487357  
C224     C      0.177990000000     0.555710000000     0.199320000000     0.070867   
C225     C      0.005220000000     0.190000000000     0.678950000000    -0.138341   
C226     C      0.917140000000     0.342650000000     0.770370000000     0.0709908  
C227     C      0.903060000000     0.296850000000     0.793480000000     0.0711319  
C228     C      0.933920000000     0.326030000000     0.751310000000    -0.08882    
C229     C      0.980240000000     0.285850000000     0.725630000000    -0.0364329  
C230     C      0.997020000000     0.268410000000     0.707200000000    -0.0300675  
C231     C      0.952890000000     0.275920000000     0.733310000000    -0.00324517 
C232     C      0.919520000000     0.279530000000     0.774740000000    -0.0889154  
C233     C      0.986810000000     0.240660000000     0.696010000000    -0.0135906  
C234     C      0.020820000000     0.235650000000     0.655240000000    -0.102096   
C235     C      0.959340000000     0.230920000000     0.703480000000    -0.0301483  
C236     C      0.037540000000     0.217720000000     0.637310000000     0.0776939  
C237     C      0.021300000000     0.172190000000     0.659930000000     0.185965   
C238     C      0.942600000000     0.248310000000     0.721930000000    -0.0366604  
C239     C      0.935230000000     0.294070000000     0.753340000000     0.0487496  
C240     C      0.004730000000     0.221900000000     0.676660000000     0.0708364  
C241     C      0.780840000000     0.321780000000     0.956620000000    -0.138109   
C242     C      0.662330000000     0.178670000000     0.024350000000     0.0720918  
C243     C      0.666970000000     0.214300000000     0.062130000000     0.0716202  
C244     C      0.680490000000     0.196100000000     0.007370000000    -0.0889896  
C245     C      0.705060000000     0.246960000000     0.971000000000    -0.0363696  
C246     C      0.723220000000     0.264320000000     0.953910000000    -0.0302211  
C247     C      0.711210000000     0.242310000000     0.999950000000    -0.00329418 
C248     C      0.685300000000     0.232250000000     0.045740000000    -0.088957   
C249     C      0.747990000000     0.277420000000     0.965340000000    -0.0136107  
C250     C      0.774370000000     0.284600000000     0.919600000000    -0.102275   
C251     C      0.754010000000     0.273010000000     0.994370000000    -0.0302454  
C252     C      0.792920000000     0.301200000000     0.902450000000     0.0772645  
C253     C      0.800410000000     0.337620000000     0.939390000000     0.185728   
C254     C      0.735800000000     0.255690000000     0.011490000000    -0.0365815  
C255     C      0.692130000000     0.223330000000     0.017930000000     0.0490469  
C256     C      0.767740000000     0.295040000000     0.946860000000     0.070715   
C257     C      0.669450000000     0.528240000000     0.674340000000    -0.138047   
C258     C      0.781550000000     0.458730000000     0.813600000000     0.0719073  
C259     C      0.777320000000     0.418350000000     0.780170000000     0.0715801  
C260     C      0.762550000000     0.476600000000     0.797970000000    -0.0887268  
C261     C      0.738040000000     0.515660000000     0.750610000000    -0.0362033  
C262     C      0.720820000000     0.533700000000     0.733170000000    -0.03021    
C263     C      0.731780000000     0.484560000000     0.754970000000    -0.00316639 
C264     C      0.758190000000     0.435580000000     0.764030000000    -0.0885497  
C265     C      0.696860000000     0.521110000000     0.719670000000    -0.0135043  
C266     C      0.673570000000     0.570730000000     0.706420000000    -0.102345   
C267     C      0.690390000000     0.490080000000     0.724290000000    -0.0303456  
C268     C      0.658170000000     0.588610000000     0.687330000000     0.0778317  
C269     C      0.654850000000     0.546930000000     0.654800000000     0.185975   
C270     C      0.707670000000     0.472000000000     0.741720000000    -0.0364901  
C271     C      0.750820000000     0.465220000000     0.772680000000     0.0489485  
C272     C      0.679280000000     0.540120000000     0.700160000000     0.0708008  
C273     C      0.956690000000     0.432970000000     0.925900000000    -0.138337   
C274     C      0.031430000000     0.590660000000     0.021650000000     0.0711414  
C275     C      0.057630000000     0.547740000000     0.037920000000     0.0713731  
C276     C      0.016470000000     0.572250000000     0.002570000000    -0.0891849  
C277     C      0.999140000000     0.530390000000     0.954000000000    -0.0362772  
C278     C      0.982670000000     0.512110000000     0.936050000000    -0.0305453  
C279     C      0.005470000000     0.520780000000     0.981820000000    -0.00368047 
C280     C      0.042950000000     0.528610000000     0.019160000000    -0.0888426  
C281     C      0.972030000000     0.483810000000     0.945530000000    -0.0136484  
C282     C      0.933320000000     0.478400000000     0.909260000000    -0.102393   
C283     C      0.978690000000     0.474020000000     0.973240000000    -0.0303989  
C284     C      0.915790000000     0.460270000000     0.892360000000     0.077452   
C285     C      0.939450000000     0.415110000000     0.907930000000     0.184965   
C286     C      0.995250000000     0.492270000000     0.991170000000    -0.0364455  
C287     C      0.021980000000     0.540780000000     0.001290000000     0.0488711  
C288     C      0.953690000000     0.464810000000     0.926760000000     0.0704339  
Cd1      Cd     0.852030000000     0.379390000000     0.849990000000     0.507229   
Cd2      Cd     0.092700000000     0.635360000000     0.100440000000     0.506888   
Cd3      Cd     0.340840000000     0.889750000000     0.851500000000     0.506683   
Cd4      Cd     0.596690000000     0.135620000000     0.100460000000     0.506639   
Cd5      Cd     0.351820000000     0.394500000000     0.348390000000     0.507028   
Cd6      Cd     0.596530000000     0.635640000000     0.610750000000     0.507188   
Cd7      Cd     0.842210000000     0.882460000000     0.352470000000     0.50761    
Cd8      Cd     0.100260000000     0.138440000000     0.590350000000     0.507412   
H1       H      0.048070000000     0.044670000000     0.565130000000     0.0323971  
H2       H      0.892710000000     0.975780000000     0.377600000000     0.0314495  
H3       H      0.965570000000     0.009740000000     0.524930000000     0.0402595  
H4       H      0.970760000000     0.017220000000     0.419730000000     0.0389974  
H5       H      0.921260000000     0.009290000000     0.406600000000     0.0582746  
H6       H      0.001930000000     0.048920000000     0.448780000000     0.0407179  
H7       H      0.939510000000     0.934710000000     0.463230000000     0.0671827  
H8       H      0.015790000000     0.014090000000     0.536660000000     0.0544265  
H9       H      0.001650000000     0.091830000000     0.481820000000     0.0548976  
H10      H      0.934370000000     0.978000000000     0.495840000000     0.03894    
H11      H      0.034450000000     0.121590000000     0.510480000000     0.0327715  
H12      H      0.924870000000     0.885490000000     0.450930000000     0.0930934  
H13      H      0.909000000000     0.876530000000     0.418170000000     0.117621   
H14      H      0.753470000000     0.859870000000     0.404000000000     0.0328747  
H15      H      0.683410000000     0.662080000000     0.561220000000     0.0306963  
H16      H      0.696820000000     0.781470000000     0.436670000000     0.0407264  
H17      H      0.739650000000     0.736000000000     0.523350000000     0.0387982  
H18      H      0.713110000000     0.689140000000     0.527980000000     0.0581216  
H19      H      0.769520000000     0.764760000000     0.490540000000     0.0407843  
H20      H      0.648060000000     0.757110000000     0.517320000000     0.0671385  
H21      H      0.723160000000     0.830050000000     0.435290000000     0.0549018  
H22      H      0.789180000000     0.761970000000     0.442240000000     0.0549497  
H23      H      0.666910000000     0.752470000000     0.469400000000     0.0389357  
H24      H      0.819050000000     0.792530000000     0.411180000000     0.0322498  
H25      H      0.607880000000     0.755300000000     0.546400000000     0.0930652  
H26      H      0.603840000000     0.729060000000     0.574430000000     0.11882    
H27      H      0.157810000000     0.158580000000     0.505010000000     0.0320158  
H28      H      0.311440000000     0.360580000000     0.437800000000     0.0321714  
H29      H      0.192900000000     0.235350000000     0.448660000000     0.0408752  
H30      H      0.276370000000     0.284120000000     0.494420000000     0.0386318  
H31      H      0.280210000000     0.330910000000     0.467550000000     0.0582774  
H32      H      0.243010000000     0.255010000000     0.523450000000     0.0406957  
H33      H      0.274820000000     0.261980000000     0.402560000000     0.0671641  
H34      H      0.190840000000     0.187600000000     0.475970000000     0.0546072  
H35      H      0.193850000000     0.257380000000     0.540860000000     0.0550946  
H36      H      0.226120000000     0.264620000000     0.419640000000     0.0393259  
H37      H      0.161040000000     0.227570000000     0.569530000000     0.0329425  
H38      H      0.304140000000     0.266110000000     0.362480000000     0.0933098  
H39      H      0.329680000000     0.295190000000     0.358340000000     0.115236   
H40      H      0.504340000000     0.602990000000     0.571580000000     0.0328647  
H41      H      0.439580000000     0.441310000000     0.380110000000     0.0321655  
H42      H      0.460450000000     0.576890000000     0.487990000000     0.0406783  
H43      H      0.483100000000     0.469650000000     0.461790000000     0.0391956  
H44      H      0.469850000000     0.469720000000     0.411860000000     0.0581293  
H45      H      0.513730000000     0.496800000000     0.495180000000     0.0408508  
H46      H      0.396320000000     0.509320000000     0.451630000000     0.0671147  
H47      H      0.473630000000     0.575800000000     0.538670000000     0.0550043  
H48      H      0.547650000000     0.539680000000     0.496220000000     0.0547944  
H49      H      0.429990000000     0.549920000000     0.454380000000     0.0379844  
H50      H      0.577740000000     0.566940000000     0.529680000000     0.0316049  
H51      H      0.351850000000     0.501990000000     0.430510000000     0.0930532  
H52      H      0.346900000000     0.481710000000     0.398570000000     0.115652   
H53      H      0.808440000000     0.917000000000     0.258850000000     0.0326487  
H54      H      0.625410000000     0.085760000000     0.187520000000     0.032163   
H55      H      0.730810000000     0.950510000000     0.211180000000     0.0405255  
H56      H      0.707440000000     0.058610000000     0.233350000000     0.0391769  
H57      H      0.656150000000     0.056900000000     0.218560000000     0.058508   
H58      H      0.738930000000     0.030240000000     0.265040000000     0.0405841  
H59      H      0.701690000000     0.022750000000     0.146020000000     0.0673829  
H60      H      0.778870000000     0.946480000000     0.226770000000     0.0546545  
H61      H      0.739040000000     0.989660000000     0.299130000000     0.0548169  
H62      H      0.699820000000     0.979130000000     0.179300000000     0.0384192  
H63      H      0.769650000000     0.960470000000     0.330550000000     0.033123   
H64      H      0.683940000000     0.032800000000     0.100390000000     0.0931171  
H65      H      0.652000000000     0.052560000000     0.094130000000     0.116199   
H66      H      0.437350000000     0.333960000000     0.326160000000     0.0321179  
H67      H      0.515450000000     0.200880000000     0.120840000000     0.0314597  
H68      H      0.472480000000     0.255540000000     0.273010000000     0.0400798  
H69      H      0.480420000000     0.283480000000     0.171000000000     0.0391554  
H70      H      0.484160000000     0.230780000000     0.150530000000     0.058589   
H71      H      0.449640000000     0.313470000000     0.202010000000     0.040669   
H72      H      0.548910000000     0.236080000000     0.214640000000     0.0675038  
H73      H      0.468090000000     0.304050000000     0.295530000000     0.0542944  
H74      H      0.406350000000     0.311920000000     0.227980000000     0.0547357  
H75      H      0.503770000000     0.226100000000     0.242030000000     0.0394356  
H76      H      0.376660000000     0.342660000000     0.258910000000     0.0326361  
H77      H      0.594570000000     0.218380000000     0.203910000000     0.0931967  
H78      H      0.604340000000     0.204640000000     0.170140000000     0.117607   
H79      H      0.295330000000     0.913230000000     0.759630000000     0.0318191  
H80      H      0.151620000000     0.117460000000     0.677590000000     0.0321397  
H81      H      0.218700000000     0.958990000000     0.717340000000     0.040593   
H82      H      0.227260000000     0.072050000000     0.721730000000     0.038828   
H83      H      0.178590000000     0.087110000000     0.710750000000     0.0584215  
H84      H      0.254590000000     0.040660000000     0.754710000000     0.0406467  
H85      H      0.200510000000     0.024690000000     0.643660000000     0.0671217  
H86      H      0.267210000000     0.943900000000     0.727120000000     0.0544587  
H87      H      0.249290000000     0.007110000000     0.795380000000     0.0548962  
H88      H      0.191470000000     0.990430000000     0.684250000000     0.0394086  
H89      H      0.278080000000     0.976210000000     0.827140000000     0.0331471  
H90      H      0.188330000000     0.037150000000     0.596820000000     0.093213   
H91      H      0.172340000000     0.072020000000     0.587230000000     0.116122   
H92      H      0.569860000000     0.732230000000     0.656930000000     0.0307073  
H93      H      0.376000000000     0.799630000000     0.803680000000     0.0325907  
H94      H      0.493510000000     0.785230000000     0.688030000000     0.0401855  
H95      H      0.458540000000     0.749100000000     0.781760000000     0.0393835  
H96      H      0.408990000000     0.768250000000     0.777580000000     0.0586191  
H97      H      0.490550000000     0.716630000000     0.754220000000     0.0406892  
H98      H      0.459950000000     0.847460000000     0.759640000000     0.0670735  
H99      H      0.540810000000     0.764820000000     0.686830000000     0.0542423  
H100     H      0.491320000000     0.686030000000     0.711570000000     0.0549771  
H101     H      0.461830000000     0.817710000000     0.715700000000     0.0382268  
H102     H      0.521340000000     0.653980000000     0.682000000000     0.0329547  
H103     H      0.442400000000     0.895850000000     0.771500000000     0.0928564  
H104     H      0.408460000000     0.901990000000     0.785910000000     0.116646   
H105     H      0.531650000000     0.048870000000     0.083140000000     0.0319329  
H106     H      0.397570000000     0.976890000000     0.880820000000     0.031447   
H107     H      0.452660000000     0.018070000000     0.033190000000     0.0405985  
H108     H      0.476300000000     0.003750000000     0.931170000000     0.0389578  
H109     H      0.428730000000     0.006340000000     0.910790000000     0.0580909  
H110     H      0.507520000000     0.034510000000     0.961120000000     0.0407727  
H111     H      0.418910000000     0.940030000000     0.977550000000     0.067098   
H112     H      0.500340000000     0.017580000000     0.054120000000     0.0546732  
H113     H      0.507460000000     0.083560000000     0.986190000000     0.0550685  
H114     H      0.421350000000     0.987450000000     0.003240000000     0.0381787  
H115     H      0.538970000000     0.114030000000     0.015590000000     0.0332059  
H116     H      0.384740000000     0.901700000000     0.972530000000     0.0929402  
H117     H      0.361450000000     0.899300000000     0.943450000000     0.116348   
H118     H      0.858490000000     0.795690000000     0.287410000000     0.0326974  
H119     H      0.064980000000     0.717180000000     0.164180000000     0.0296993  
H120     H      0.912970000000     0.766900000000     0.211650000000     0.0406373  
H121     H      0.009930000000     0.736530000000     0.241870000000     0.0384391  
H122     H      0.034780000000     0.744710000000     0.196630000000     0.0577672  
H123     H      0.980130000000     0.766040000000     0.274290000000     0.0404343  
H124     H      0.964270000000     0.687890000000     0.172640000000     0.0669402  
H125     H      0.887270000000     0.763360000000     0.256800000000     0.0548479  
H126     H      0.960850000000     0.817720000000     0.277890000000     0.0548132  
H127     H      0.942750000000     0.737470000000     0.179240000000     0.0381078  
H128     H      0.931580000000     0.849210000000     0.308600000000     0.0318845  
H129     H      0.969390000000     0.654630000000     0.134040000000     0.0927435  
H130     H      0.000250000000     0.652600000000     0.113120000000     0.117334   
H131     H      0.255380000000     0.867940000000     0.908510000000     0.0320274  
H132     H      0.172980000000     0.652610000000     0.037420000000     0.0313122  
H133     H      0.192680000000     0.794370000000     0.937190000000     0.0404602  
H134     H      0.238100000000     0.722330000000     0.004910000000     0.0390228  
H135     H      0.202130000000     0.680450000000     0.004070000000     0.0584731  
H136     H      0.267820000000     0.752870000000     0.973380000000     0.0402986  
H137     H      0.155390000000     0.762540000000     0.022090000000     0.0674632  
H138     H      0.225030000000     0.836420000000     0.938090000000     0.0543577  
H139     H      0.281880000000     0.760150000000     0.925080000000     0.0547064  
H140     H      0.163060000000     0.764190000000     0.969240000000     0.0393476  
H141     H      0.312200000000     0.792680000000     0.896370000000     0.0328493  
H142     H      0.122700000000     0.762500000000     0.059430000000     0.093442   
H143     H      0.117760000000     0.731210000000     0.082330000000     0.119234   
H144     H      0.256540000000     0.426680000000     0.316620000000     0.0325148  
H145     H      0.178960000000     0.614330000000     0.152580000000     0.0318605  
H146     H      0.203930000000     0.507180000000     0.283500000000     0.0401642  
H147     H      0.229470000000     0.532280000000     0.183780000000     0.0395788  
H148     H      0.210670000000     0.585290000000     0.182400000000     0.0583461  
H149     H      0.262160000000     0.502060000000     0.212560000000     0.0409257  
H150     H      0.140250000000     0.532160000000     0.213030000000     0.0672641  
H151     H      0.223390000000     0.456340000000     0.288300000000     0.0547126  
H152     H      0.293770000000     0.506700000000     0.252610000000     0.0546836  
H153     H      0.171140000000     0.537170000000     0.254560000000     0.0380432  
H154     H      0.326310000000     0.476100000000     0.280710000000     0.0321503  
H155     H      0.094070000000     0.547300000000     0.200890000000     0.0932436  
H156     H      0.086500000000     0.580150000000     0.180640000000     0.115988   
H157     H      0.891330000000     0.284700000000     0.809810000000     0.033176   
H158     H      0.050310000000     0.229700000000     0.621650000000     0.0322666  
H159     H      0.921440000000     0.240300000000     0.727040000000     0.0407605  
H160     H      0.018210000000     0.276380000000     0.702130000000     0.0391954  
H161     H      0.020560000000     0.260240000000     0.652280000000     0.0584638  
H162     H      0.988910000000     0.306830000000     0.734310000000     0.0407209  
H163     H      0.992380000000     0.178770000000     0.695010000000     0.0672034  
H164     H      0.920210000000     0.254910000000     0.777290000000     0.0548354  
H165     H      0.945480000000     0.338150000000     0.734880000000     0.0550056  
H166     H      0.950580000000     0.209990000000     0.694790000000     0.0381007  
H167     H      0.916620000000     0.367340000000     0.768060000000     0.0323204  
H168     H      0.004370000000     0.131160000000     0.675880000000     0.0930085  
H169     H      0.023480000000     0.126700000000     0.644030000000     0.115894   
H170     H      0.661990000000     0.222120000000     0.083450000000     0.0309228  
H171     H      0.796560000000     0.292440000000     0.881160000000     0.0322388  
H172     H      0.741330000000     0.252210000000     0.033620000000     0.0404221  
H173     H      0.717730000000     0.267670000000     0.931740000000     0.0391978  
H174     H      0.765280000000     0.263580000000     0.911440000000     0.058319   
H175     H      0.686030000000     0.237410000000     0.961570000000     0.0410239  
H176     H      0.776560000000     0.329880000000     0.977990000000     0.0671322  
H177     H      0.693640000000     0.253270000000     0.054660000000     0.0545859  
H178     H      0.685560000000     0.188100000000     0.986150000000     0.0549779  
H179     H      0.773140000000     0.282370000000     0.003750000000     0.0380864  
H180     H      0.653740000000     0.157790000000     0.015330000000     0.0327549  
H181     H      0.811240000000     0.367700000000     0.972520000000     0.0930592  
H182     H      0.834140000000     0.369750000000     0.943080000000     0.117802   
H183     H      0.782810000000     0.395700000000     0.772520000000     0.0324846  
H184     H      0.653720000000     0.611980000000     0.693710000000     0.0312741  
H185     H      0.702060000000     0.448210000000     0.744950000000     0.0406219  
H186     H      0.726750000000     0.557350000000     0.729670000000     0.0390992  
H187     H      0.680600000000     0.580850000000     0.726240000000     0.0583694  
H188     H      0.756720000000     0.525930000000     0.760100000000     0.0411593  
H189     H      0.674800000000     0.504950000000     0.668480000000     0.0672004  
H190     H      0.749840000000     0.425980000000     0.744500000000     0.0549218  
H191     H      0.757100000000     0.499210000000     0.805670000000     0.0551952  
H192     H      0.671880000000     0.479770000000     0.714520000000     0.0389755  
H193     H      0.790320000000     0.468490000000     0.832920000000     0.0332123  
H194     H      0.654870000000     0.512480000000     0.623640000000     0.0932895  
H195     H      0.644710000000     0.548520000000     0.610690000000     0.118379   
H196     H      0.073620000000     0.537440000000     0.051490000000     0.0329356  
H197     H      0.899570000000     0.472010000000     0.880120000000     0.0322004  
H198     H      0.999430000000     0.484400000000     0.012620000000     0.0406803  
H199     H      0.978420000000     0.520090000000     0.914650000000     0.0387141  
H200     H      0.930200000000     0.502950000000     0.909260000000     0.0582239  
H201     H      0.007080000000     0.552020000000     0.946020000000     0.0405413  
H202     H      0.973400000000     0.422100000000     0.938150000000     0.0668274  
H203     H      0.048100000000     0.504450000000     0.018590000000     0.0548956  
H204     H      0.000220000000     0.582560000000     0.989360000000     0.0546301  
H205     H      0.970540000000     0.452540000000     0.981350000000     0.0386597  
H206     H      0.026270000000     0.614850000000     0.022200000000     0.0314816  
H207     H      0.962370000000     0.375050000000     0.917060000000     0.0925525  
H208     H      0.938600000000     0.371270000000     0.888390000000     0.115009   
N1       N      0.899000000000     0.935690000000     0.403410000000    -0.19956    
N2       N      0.043620000000     0.085290000000     0.539850000000    -0.180232   
N3       N      0.914640000000     0.893500000000     0.432640000000    -0.218898   
N4       N      0.648120000000     0.693210000000     0.558500000000    -0.199713   
N5       N      0.788460000000     0.828430000000     0.405440000000    -0.180326   
N6       N      0.614750000000     0.735010000000     0.555980000000    -0.219248   
N7       N      0.310770000000     0.329360000000     0.402410000000    -0.199334   
N8       N      0.157080000000     0.190950000000     0.539360000000    -0.180331   
N9       N      0.311880000000     0.287310000000     0.369270000000    -0.218491   
N10      N      0.400250000000     0.458480000000     0.397110000000    -0.198626   
N11      N      0.543230000000     0.586950000000     0.553000000000    -0.180444   
N12      N      0.360380000000     0.486970000000     0.415440000000    -0.218327   
N13      N      0.645550000000     0.071530000000     0.148610000000    -0.199156   
N14      N      0.791130000000     0.936530000000     0.296990000000    -0.180067   
N15      N      0.667820000000     0.046690000000     0.108610000000    -0.218819   
N16      N      0.550370000000     0.200470000000     0.150370000000    -0.199171   
N17      N      0.404850000000     0.340540000000     0.294740000000    -0.180502   
N18      N      0.587950000000     0.210300000000     0.184050000000    -0.218695   
N19      N      0.159640000000     0.088730000000     0.641290000000    -0.198957   
N20      N      0.288820000000     0.942560000000     0.795670000000    -0.180468   
N21      N      0.177510000000     0.056790000000     0.603460000000    -0.218523   
N22      N      0.398360000000     0.842000000000     0.797030000000    -0.198817   
N23      N      0.547590000000     0.690800000000     0.667160000000    -0.180559   
N24      N      0.424490000000     0.886380000000     0.781260000000    -0.219008   
N25      N      0.389640000000     0.941310000000     0.911460000000    -0.199029   
N26      N      0.537670000000     0.083600000000     0.051420000000    -0.180357   
N27      N      0.379940000000     0.908740000000     0.951820000000    -0.218692   
N28      N      0.032530000000     0.686460000000     0.149200000000    -0.199981   
N29      N      0.892930000000     0.824800000000     0.300140000000    -0.18064    
N30      N      0.990910000000     0.660080000000     0.131950000000    -0.218967   
N31      N      0.146920000000     0.691020000000     0.049240000000    -0.199014   
N32      N      0.286030000000     0.832660000000     0.900460000000    -0.180537   
N33      N      0.125820000000     0.739140000000     0.063070000000    -0.219036   
N34      N      0.141060000000     0.590260000000     0.164980000000    -0.19917    
N35      N      0.293790000000     0.449160000000     0.300630000000    -0.180891   
N36      N      0.101730000000     0.564540000000     0.187510000000    -0.218795   
N37      N      0.038790000000     0.186420000000     0.640160000000    -0.199151   
N38      N      0.901900000000     0.328140000000     0.791290000000    -0.180181   
N39      N      0.017180000000     0.141310000000     0.660350000000    -0.21865    
N40      N      0.805110000000     0.328070000000     0.911600000000    -0.198823   
N41      N      0.655480000000     0.187820000000     0.051430000000    -0.180696   
N42      N      0.815680000000     0.360560000000     0.951750000000    -0.218898   
N43      N      0.648170000000     0.576910000000     0.662060000000    -0.199253   
N44      N      0.789150000000     0.430010000000     0.804560000000    -0.18032    
N45      N      0.650110000000     0.535310000000     0.628290000000    -0.219147   
N46      N      0.917800000000     0.428870000000     0.892490000000    -0.199547   
N47      N      0.051690000000     0.578450000000     0.039320000000    -0.180662   
N48      N      0.946320000000     0.385000000000     0.904760000000    -0.218756   
O1       O      0.820550000000     0.423650000000     0.841760000000    -0.248619   
O2       O      0.828480000000     0.333310000000     0.868630000000    -0.248232   
O3       O      0.880710000000     0.425130000000     0.860480000000    -0.250082   
O4       O      0.883920000000     0.373640000000     0.808610000000    -0.252428   
O5       O      0.871760000000     0.332070000000     0.829790000000    -0.246415   
O6       O      0.891840000000     0.384790000000     0.883770000000    -0.260685   
O7       O      0.816900000000     0.387100000000     0.811500000000    -0.25312    
O8       O      0.826190000000     0.372810000000     0.895390000000    -0.256359   
O9       O      0.101220000000     0.595060000000     0.136330000000    -0.253637   
O10      O      0.076410000000     0.679950000000     0.128050000000    -0.255898   
O11      O      0.084270000000     0.586450000000     0.075280000000    -0.249658   
O12      O      0.136040000000     0.645900000000     0.072590000000    -0.251204   
O13      O      0.105160000000     0.681850000000     0.073910000000    -0.25324    
O14      O      0.059710000000     0.624920000000     0.061080000000    -0.25502    
O15      O      0.133920000000     0.628730000000     0.132030000000    -0.252962   
O16      O      0.046550000000     0.643330000000     0.124160000000    -0.258972   
O17      O      0.309380000000     0.933060000000     0.839360000000    -0.247248   
O18      O      0.385930000000     0.883510000000     0.825220000000    -0.256936   
O19      O      0.297420000000     0.878560000000     0.879050000000    -0.253985   
O20      O      0.368490000000     0.896440000000     0.895710000000    -0.258259   
O21      O      0.365230000000     0.935960000000     0.869060000000    -0.251414   
O22      O      0.326830000000     0.841340000000     0.874530000000    -0.247767   
O23      O      0.317560000000     0.901150000000     0.805630000000    -0.254789   
O24      O      0.356110000000     0.846700000000     0.821630000000    -0.247304   
O25      O      0.566980000000     0.125210000000     0.058410000000    -0.247971   
O26      O      0.586540000000     0.165250000000     0.143750000000    -0.251988   
O27      O      0.625890000000     0.146400000000     0.058180000000    -0.248514   
O28      O      0.636820000000     0.100100000000     0.107990000000    -0.257642   
O29      O      0.607270000000     0.103930000000     0.142430000000    -0.247877   
O30      O      0.629710000000     0.178750000000     0.092360000000    -0.2561     
O31      O      0.563630000000     0.092460000000     0.092280000000    -0.254587   
O32      O      0.558370000000     0.173320000000     0.108840000000    -0.254176   
O33      O      0.364800000000     0.369510000000     0.303290000000    -0.251338   
O34      O      0.337300000000     0.373110000000     0.394810000000    -0.250546   
O35      O      0.339020000000     0.435280000000     0.314380000000    -0.254174   
O36      O      0.395150000000     0.423250000000     0.360720000000    -0.249367   
O37      O      0.358570000000     0.432700000000     0.386320000000    -0.252462   
O38      O      0.304030000000     0.411130000000     0.333110000000    -0.252699   
O39      O      0.394170000000     0.363210000000     0.337800000000    -0.250466   
O40      O      0.324560000000     0.347470000000     0.358220000000    -0.255573   
O41      O      0.559640000000     0.644190000000     0.647360000000    -0.24842    
O42      O      0.587210000000     0.601450000000     0.569980000000    -0.252576   
O43      O      0.630540000000     0.624300000000     0.649230000000    -0.253495   
O44      O      0.641830000000     0.653620000000     0.590480000000    -0.254729   
O45      O      0.604600000000     0.676880000000     0.575850000000    -0.255525   
O46      O      0.614700000000     0.585380000000     0.626690000000    -0.256569   
O47      O      0.583040000000     0.683880000000     0.633960000000    -0.253959   
O48      O      0.550350000000     0.618830000000     0.591480000000    -0.249878   
O49      O      0.824830000000     0.899400000000     0.305670000000    -0.251591   
O50      O      0.869320000000     0.894150000000     0.395990000000    -0.258537   
O51      O      0.850080000000     0.838780000000     0.320160000000    -0.247787   
O52      O      0.797770000000     0.871300000000     0.378330000000    -0.249823   
O53      O      0.830430000000     0.837170000000     0.381460000000    -0.250628   
O54      O      0.886880000000     0.865720000000     0.330500000000    -0.254209   
O55      O      0.806780000000     0.922560000000     0.341710000000    -0.246521   
O56      O      0.872500000000     0.927340000000     0.362720000000    -0.253064   
O57      O      0.131360000000     0.130820000000     0.631980000000    -0.25205    
O58      O      0.129120000000     0.148530000000     0.547660000000    -0.252876   
O59      O      0.066990000000     0.144270000000     0.630340000000    -0.256349   
O60      O      0.074360000000     0.091370000000     0.577670000000    -0.249204   
O61      O      0.067570000000     0.129990000000     0.550170000000    -0.250928   
O62      O      0.070390000000     0.182950000000     0.602620000000    -0.25056    
O63      O      0.130860000000     0.094320000000     0.601610000000    -0.253113   
O64      O      0.130220000000     0.183410000000     0.579850000000    -0.249297   


