data_structure

_audit_creation_method RASPA-1.0
_audit_creation_date 2023-5-22
_audit_author_name 'Poobodin Mano'

_cell_length_a    45.7171
_cell_length_b    47.2439
_cell_length_c    45.1625
_cell_angle_alpha 90
_cell_angle_beta  90
_cell_angle_gamma 90
_cell_volume      97544.4

_symmetry_cell_setting          triclinic
_symmetry_space_group_name_Hall 'P 1'
_symmetry_space_group_name_H-M  'P 1'
_symmetry_Int_Tables_number     1

_symmetry_equiv_pos_as_xyz 'x,y,z'

loop_
_atom_site_label
_atom_site_type_symbol
_atom_site_fract_x
_atom_site_fract_y
_atom_site_fract_z
_atom_site_charge
C1       C      0.908950000000     0.392270000000     0.912670000000     0.375966   
C2       C      0.833260000000     0.392070000000     0.843070000000     0.348879   
C3       C      0.907730000000     0.319270000000     0.842240000000     0.374766   
C4       C      0.834510000000     0.320530000000     0.914530000000     0.374221   
C5       C      0.088560000000     0.567260000000     0.090580000000     0.347848   
C6       C      0.158410000000     0.643810000000     0.090950000000     0.374076   
C7       C      0.088070000000     0.644170000000     0.160780000000     0.374632   
C8       C      0.156610000000     0.567020000000     0.162970000000     0.37283    
C9       C      0.411060000000     0.892340000000     0.915820000000     0.372302   
C10      C      0.411450000000     0.821450000000     0.842340000000     0.375035   
C11      C      0.337840000000     0.820620000000     0.914780000000     0.349119   
C12      C      0.338000000000     0.892570000000     0.842140000000     0.351229   
C13      C      0.656970000000     0.143760000000     0.092680000000     0.348656   
C14      C      0.584900000000     0.071230000000     0.095260000000     0.350212   
C15      C      0.660360000000     0.072920000000     0.167040000000     0.375561   
C16      C      0.585690000000     0.142600000000     0.167390000000     0.371751   
C17      C      0.333880000000     0.391430000000     0.342620000000     0.348631   
C18      C      0.406290000000     0.320150000000     0.342820000000     0.349419   
C19      C      0.405090000000     0.393290000000     0.416330000000     0.375081   
C20      C      0.333580000000     0.319020000000     0.414940000000     0.374708   
C21      C      0.657410000000     0.569870000000     0.664180000000     0.373029   
C22      C      0.584690000000     0.572140000000     0.590340000000     0.353216   
C23      C      0.587350000000     0.643050000000     0.664080000000     0.348413   
C24      C      0.659700000000     0.640420000000     0.588810000000     0.374222   
C25      C      0.909400000000     0.818180000000     0.340730000000     0.348535   
C26      C      0.838120000000     0.893930000000     0.342430000000     0.347385   
C27      C      0.838700000000     0.815810000000     0.410720000000     0.346419   
C28      C      0.907130000000     0.893540000000     0.413270000000     0.347307   
C29      C      0.085180000000     0.141060000000     0.665450000000     0.348603   
C30      C      0.156990000000     0.068290000000     0.666420000000     0.375688   
C31      C      0.084140000000     0.069060000000     0.593280000000     0.37254    
C32      C      0.157260000000     0.139670000000     0.591450000000     0.350719   
C33      C      0.028750000000     0.016870000000     0.571030000000    -0.214286   
C34      C      0.943550000000     0.929180000000     0.417900000000     0.074303   
C35      C      0.920110000000     0.911190000000     0.460790000000     0.0746258  
C36      C      0.960810000000     0.947040000000     0.435270000000    -0.086716   
C37      C      0.006170000000     0.969410000000     0.478240000000    -0.0365826  
C38      C      0.023740000000     0.986610000000     0.496050000000    -0.0216634  
C39      C      0.976440000000     0.965370000000     0.485020000000     0.00124715 
C40      C      0.937060000000     0.928740000000     0.478830000000    -0.0865484  
C41      C      0.012020000000     0.000120000000     0.521110000000    -0.0233916  
C42      C      0.050960000000     0.037000000000     0.527590000000    -0.122221   
C43      C      0.982310000000     0.996100000000     0.527910000000    -0.0211952  
C44      C      0.068490000000     0.053800000000     0.545790000000     0.0969336  
C45      C      0.046680000000     0.033880000000     0.588690000000     0.416432   
C46      C      0.964710000000     0.978960000000     0.510050000000    -0.0360731  
C47      C      0.957820000000     0.946900000000     0.466150000000     0.0507638  
C48      C      0.030780000000     0.018240000000     0.540140000000     0.110437   
C49      C      0.684210000000     0.686560000000     0.528200000000    -0.214243   
C50      C      0.834150000000     0.783290000000     0.450650000000     0.074316   
C51      C      0.792990000000     0.793770000000     0.420640000000     0.0744938  
C52      C      0.817280000000     0.765140000000     0.468120000000    -0.0867177  
C53      C      0.772000000000     0.742700000000     0.511470000000    -0.036672   
C54      C      0.754240000000     0.725500000000     0.529110000000    -0.0213454  
C55      C      0.769100000000     0.742500000000     0.480470000000     0.00136473 
C56      C      0.775510000000     0.775740000000     0.437600000000    -0.0867001  
C57      C      0.733180000000     0.707670000000     0.516170000000    -0.0233625  
C58      C      0.724940000000     0.675940000000     0.560020000000    -0.121631   
C59      C      0.730450000000     0.707320000000     0.485160000000    -0.0208344  
C60      C      0.706430000000     0.659510000000     0.577610000000     0.0975647  
C61      C      0.666220000000     0.669970000000     0.546230000000     0.416685   
C62      C      0.748190000000     0.724540000000     0.467520000000    -0.0362625  
C63      C      0.787560000000     0.761260000000     0.461780000000     0.0507789  
C64      C      0.713910000000     0.689780000000     0.534980000000     0.110534   
C65      C      0.269220000000     0.288440000000     0.451640000000    -0.213903   
C66      C      0.203610000000     0.150830000000     0.570600000000     0.0759248  
C67      C      0.162300000000     0.179190000000     0.559270000000     0.0757622  
C68      C      0.221390000000     0.167960000000     0.552960000000    -0.0863785  
C69      C      0.256180000000     0.217730000000     0.528960000000    -0.0359504  
C70      C      0.273580000000     0.235520000000     0.511610000000    -0.0208011  
C71      C      0.228010000000     0.209920000000     0.519510000000     0.00160258 
C72      C      0.179440000000     0.196730000000     0.541420000000    -0.0864355  
C73      C      0.263210000000     0.245920000000     0.484400000000    -0.0228576  
C74      C      0.311640000000     0.260330000000     0.462950000000    -0.120961   
C75      C      0.235090000000     0.238010000000     0.474880000000    -0.0207979  
C76      C      0.328550000000     0.278620000000     0.445740000000     0.100126   
C77      C      0.286720000000     0.306380000000     0.434580000000     0.418413   
C78      C      0.217700000000     0.220230000000     0.492240000000    -0.0358811  
C79      C      0.209390000000     0.191280000000     0.538140000000     0.0515334  
C80      C      0.281580000000     0.265100000000     0.466080000000     0.11154    
C81      C      0.445100000000     0.422480000000     0.479950000000    -0.213903   
C82      C      0.578770000000     0.537580000000     0.552570000000     0.0810077  
C83      C      0.537090000000     0.556540000000     0.576690000000     0.0789075  
C84      C      0.561020000000     0.520210000000     0.535170000000    -0.0844194  
C85      C      0.517690000000     0.497480000000     0.490310000000    -0.0359018  
C86      C      0.499920000000     0.479730000000     0.473320000000    -0.020462   
C87      C      0.511350000000     0.502450000000     0.520340000000     0.00263872 
C88      C      0.518670000000     0.539520000000     0.559590000000    -0.0853808  
C89      C      0.475290000000     0.466550000000     0.485890000000    -0.0229483  
C90      C      0.450140000000     0.453790000000     0.438280000000    -0.121927   
C91      C      0.468830000000     0.471660000000     0.515860000000    -0.0199472  
C92      C      0.432880000000     0.435410000000     0.421550000000     0.0979459  
C93      C      0.427790000000     0.404530000000     0.462660000000     0.417525   
C94      C      0.486650000000     0.489360000000     0.532880000000    -0.0352225  
C95      C      0.530550000000     0.520990000000     0.538540000000     0.0530441  
C96      C      0.456560000000     0.447420000000     0.467840000000     0.111147   
C97      C      0.722600000000     0.029700000000     0.191620000000    -0.213754   
C98      C      0.796500000000     0.923840000000     0.338060000000     0.0744143  
C99      C      0.828930000000     0.918510000000     0.297460000000     0.0748189  
C100     C      0.778840000000     0.942060000000     0.321500000000    -0.0869177  
C101     C      0.737230000000     0.965010000000     0.274540000000    -0.0366416  
C102     C      0.719710000000     0.982620000000     0.257110000000    -0.0212844  
C103     C      0.767820000000     0.967820000000     0.274210000000     0.00139266 
C104     C      0.811900000000     0.936790000000     0.280350000000    -0.0869645  
C105     C      0.732370000000     0.003560000000     0.239060000000    -0.0228827  
C106     C      0.686780000000     0.032130000000     0.230530000000    -0.121118   
C107     C      0.763000000000     0.006500000000     0.238960000000    -0.0203415  
C108     C      0.669380000000     0.049110000000     0.212390000000     0.0991501  
C109     C      0.704760000000     0.046850000000     0.174020000000     0.417634   
C110     C      0.780510000000     0.988780000000     0.256270000000    -0.0360726  
C111     C      0.786450000000     0.948720000000     0.292280000000     0.051006   
C112     C      0.713730000000     0.022080000000     0.220220000000     0.111025   
C113     C      0.562730000000     0.195660000000     0.222110000000    -0.214754   
C114     C      0.410880000000     0.283920000000     0.306560000000     0.0752326  
C115     C      0.453360000000     0.304870000000     0.327200000000     0.0756085  
C116     C      0.428070000000     0.266240000000     0.288900000000    -0.0865776  
C117     C      0.469690000000     0.220640000000     0.267230000000    -0.0367584  
C118     C      0.487410000000     0.203020000000     0.250010000000    -0.0213576  
C119     C      0.477350000000     0.249130000000     0.271910000000     0.00153258 
C120     C      0.471210000000     0.287480000000     0.309910000000    -0.0861801  
C121     C      0.513250000000     0.213450000000     0.237150000000    -0.0238314  
C122     C      0.520210000000     0.175730000000     0.198680000000    -0.122407   
C123     C      0.520860000000     0.241940000000     0.241730000000    -0.0208723  
C124     C      0.538490000000     0.158490000000     0.181690000000     0.0965355  
C125     C      0.580450000000     0.178060000000     0.204900000000     0.416374   
C126     C      0.503110000000     0.259580000000     0.258860000000    -0.0362141  
C127     C      0.458650000000     0.267850000000     0.290440000000     0.0510181  
C128     C      0.532280000000     0.194690000000     0.219100000000     0.110574   
C129     C      0.200030000000     0.041940000000     0.729340000000    -0.213722   
C130     C      0.311010000000     0.900160000000     0.797830000000     0.0777308  
C131     C      0.312310000000     0.935740000000     0.834850000000     0.0770951  
C132     C      0.293040000000     0.917070000000     0.780130000000    -0.0856341  
C133     C      0.269790000000     0.964600000000     0.741060000000    -0.0361552  
C134     C      0.251820000000     0.981960000000     0.723820000000    -0.0205819  
C135     C      0.265100000000     0.962080000000     0.771700000000     0.00209374 
C136     C      0.294240000000     0.953120000000     0.817790000000    -0.0860382  
C137     C      0.228650000000     0.997120000000     0.736810000000    -0.0228942  
C138     C      0.201020000000     0.007640000000     0.690000000000    -0.121196   
C139     C      0.223880000000     0.994440000000     0.767450000000    -0.0200862  
C140     C      0.183390000000     0.025520000000     0.673060000000     0.0994412  
C141     C      0.182320000000     0.059350000000     0.711880000000     0.418172   
C142     C      0.241920000000     0.977170000000     0.784690000000    -0.0357931  
C143     C      0.284360000000     0.943870000000     0.790080000000     0.0521368  
C144     C      0.209640000000     0.015770000000     0.718510000000     0.111559   
C145     C      0.462490000000     0.798250000000     0.784360000000    -0.213283   
C146     C      0.554690000000     0.649280000000     0.704560000000     0.0754734  
C147     C      0.569560000000     0.688920000000     0.676100000000     0.0759464  
C148     C      0.537400000000     0.666620000000     0.722480000000    -0.0863668  
C149     C      0.516400000000     0.710790000000     0.766620000000    -0.0364007  
C150     C      0.499070000000     0.728460000000     0.784180000000    -0.0207687  
C151     C      0.517640000000     0.714590000000     0.735760000000     0.00192035 
C152     C      0.552460000000     0.706870000000     0.693550000000    -0.085669   
C153     C      0.482550000000     0.750360000000     0.771300000000    -0.0229061  
C154     C      0.447720000000     0.758110000000     0.813510000000    -0.121465   
C155     C      0.483790000000     0.754140000000     0.740450000000    -0.0202205  
C156     C      0.430350000000     0.776010000000     0.830700000000     0.0989849  
C157     C      0.444920000000     0.815640000000     0.801980000000     0.420226   
C158     C      0.501130000000     0.736480000000     0.722890000000    -0.0357785  
C159     C      0.536070000000     0.695800000000     0.717060000000     0.0513318  
C160     C      0.464060000000     0.769130000000     0.789970000000     0.111605   
C161     C      0.474970000000     0.929760000000     0.945840000000    -0.213585   
C162     C      0.552150000000     0.064890000000     0.054880000000     0.0757493  
C163     C      0.565690000000     0.025610000000     0.084550000000     0.076038   
C164     C      0.534700000000     0.047520000000     0.037150000000    -0.0867121  
C165     C      0.486860000000     0.008180000000     0.014640000000    -0.0365263  
C166     C      0.469850000000     0.990400000000     0.996880000000    -0.021208   
C167     C      0.514720000000     0.999590000000     0.024280000000     0.00134937 
C168     C      0.548550000000     0.007610000000     0.067210000000    -0.0864366  
C169     C      0.480370000000     0.963680000000     0.988240000000    -0.0234028  
C170     C      0.432330000000     0.941760000000     0.974390000000    -0.122174   
C171     C      0.508250000000     0.955110000000     0.997840000000    -0.0205218  
C172     C      0.415690000000     0.924000000000     0.956330000000     0.0976388  
C173     C      0.457720000000     0.912220000000     0.928040000000     0.417362   
C174     C      0.525200000000     0.972840000000     0.015710000000    -0.0357981  
C175     C      0.532830000000     0.018480000000     0.043140000000     0.0515421  
C176     C      0.462340000000     0.944830000000     0.969270000000     0.110946   
C177     C      0.065470000000     0.694600000000     0.218320000000    -0.213068   
C178     C      0.914470000000     0.786440000000     0.300180000000     0.0746602  
C179     C      0.955940000000     0.798780000000     0.328940000000     0.0749799  
C180     C      0.931720000000     0.769320000000     0.281990000000    -0.0868456  
C181     C      0.970790000000     0.722510000000     0.258110000000    -0.0360836  
C182     C      0.988510000000     0.705660000000     0.240090000000    -0.0207899  
C183     C      0.980600000000     0.749080000000     0.268010000000     0.00152014 
C184     C      0.973840000000     0.781890000000     0.311180000000    -0.0867074  
C185     C      0.016470000000     0.714980000000     0.231530000000    -0.0225141  
C186     C      0.023710000000     0.681580000000     0.188930000000    -0.120919   
C187     C      0.026250000000     0.741590000000     0.241350000000    -0.0203429  
C188     C      0.041780000000     0.664320000000     0.171760000000     0.100628   
C189     C      0.083000000000     0.677130000000     0.200750000000     0.421034   
C190     C      0.008520000000     0.758440000000     0.259370000000    -0.0355261  
C191     C      0.961820000000     0.766950000000     0.287300000000     0.0512481  
C192     C      0.035460000000     0.696900000000     0.212640000000     0.112263   
C193     C      0.181260000000     0.693430000000     0.032730000000    -0.213782   
C194     C      0.331710000000     0.790480000000     0.956490000000     0.075063   
C195     C      0.291590000000     0.799620000000     0.924620000000     0.0750328  
C196     C      0.314260000000     0.773120000000     0.974220000000    -0.0867302  
C197     C      0.276470000000     0.724790000000     0.996820000000    -0.0365557  
C198     C      0.258670000000     0.707480000000     0.014280000000    -0.0212462  
C199     C      0.265850000000     0.750600000000     0.985690000000     0.00144842 
C200     C      0.273490000000     0.782470000000     0.941910000000    -0.0867013  
C201     C      0.229840000000     0.715600000000     0.021080000000    -0.023066   
C202     C      0.222300000000     0.682820000000     0.064150000000    -0.121164   
C203     C      0.219250000000     0.741450000000     0.009980000000    -0.0205365  
C204     C      0.204300000000     0.665260000000     0.081050000000     0.0990287  
C205     C      0.163770000000     0.675710000000     0.050090000000     0.417595   
C206     C      0.237040000000     0.758740000000     0.992470000000    -0.0358918  
C207     C      0.284760000000     0.768960000000     0.967060000000     0.0511179  
C208     C      0.210890000000     0.697110000000     0.039580000000     0.111055   
C209     C      0.185310000000     0.530140000000     0.228400000000    -0.213639   
C210     C      0.320150000000     0.408260000000     0.294980000000     0.0763122  
C211     C      0.295400000000     0.424940000000     0.337690000000     0.0782194  
C212     C      0.302650000000     0.425200000000     0.276850000000    -0.0861179  
C213     C      0.251670000000     0.450810000000     0.243090000000    -0.0361069  
C214     C      0.233990000000     0.467990000000     0.225360000000    -0.020924   
C215     C      0.262170000000     0.460670000000     0.270490000000     0.00217882 
C216     C      0.277480000000     0.442090000000     0.320220000000    -0.0847666  
C217     C      0.226330000000     0.495410000000     0.234640000000    -0.0231145  
C218     C      0.211930000000     0.515200000000     0.185200000000    -0.121852   
C219     C      0.236820000000     0.505270000000     0.262020000000    -0.020169   
C220     C      0.194510000000     0.533020000000     0.167970000000     0.0980052  
C221     C      0.168140000000     0.547690000000     0.210570000000     0.418769   
C222     C      0.254560000000     0.488130000000     0.279700000000    -0.0354052  
C223     C      0.280980000000     0.442420000000     0.289400000000     0.0519843  
C224     C      0.207580000000     0.513730000000     0.215830000000     0.111436   
C225     C      0.950270000000     0.257580000000     0.817800000000    -0.212939   
C226     C      0.080510000000     0.179370000000     0.699270000000     0.0787009  
C227     C      0.038240000000     0.154820000000     0.682940000000     0.0777413  
C228     C      0.063330000000     0.197190000000     0.716780000000    -0.0844654  
C229     C      0.020160000000     0.241630000000     0.738040000000    -0.0356946  
C230     C      0.002650000000     0.259200000000     0.755530000000    -0.0199308  
C231     C      0.014260000000     0.212490000000     0.735990000000     0.00296524 
C232     C      0.020420000000     0.172260000000     0.700190000000    -0.0846562  
C233     C      0.978830000000     0.248040000000     0.771400000000    -0.0223651  
C234     C      0.952280000000     0.293770000000     0.780400000000    -0.120696   
C235     C      0.972920000000     0.218910000000     0.769320000000    -0.0195319  
C236     C      0.934750000000     0.310950000000     0.798220000000     0.101053   
C237     C      0.932750000000     0.275260000000     0.835140000000     0.419778   
C238     C      0.990420000000     0.201340000000     0.751830000000    -0.0349514  
C239     C      0.032890000000     0.193770000000     0.717420000000     0.0525167  
C240     C      0.960240000000     0.266700000000     0.790080000000     0.11243    
C241     C      0.810280000000     0.273970000000     0.974870000000    -0.213407   
C242     C      0.686760000000     0.150500000000     0.050090000000     0.0784047  
C243     C      0.677060000000     0.189070000000     0.082220000000     0.0773393  
C244     C      0.703960000000     0.167810000000     0.032030000000    -0.0847075  
C245     C      0.725470000000     0.213280000000     0.989570000000    -0.0359861  
C246     C      0.743100000000     0.230760000000     0.972100000000    -0.0200582  
C247     C      0.726510000000     0.215060000000     0.020640000000     0.00269609 
C248     C      0.694110000000     0.206950000000     0.064690000000    -0.0849058  
C249     C      0.762220000000     0.250370000000     0.985280000000    -0.0227229  
C250     C      0.770530000000     0.281270000000     0.940830000000    -0.121548   
C251     C      0.763200000000     0.252180000000     0.016340000000    -0.0197656  
C252     C      0.788730000000     0.298520000000     0.923760000000     0.0991832  
C253     C      0.827970000000     0.291300000000     0.957330000000     0.420558   
C254     C      0.745550000000     0.234740000000     0.033800000000    -0.0351228  
C255     C      0.707910000000     0.196400000000     0.039280000000     0.0522846  
C256     C      0.781220000000     0.268760000000     0.966750000000     0.112272   
C257     C      0.694260000000     0.506480000000     0.692940000000    -0.214617   
C258     C      0.811690000000     0.437050000000     0.833980000000     0.0758072  
C259     C      0.801990000000     0.398690000000     0.801590000000     0.0759972  
C260     C      0.794210000000     0.454930000000     0.816840000000    -0.0861089  
C261     C      0.743310000000     0.483490000000     0.785500000000    -0.0367333  
C262     C      0.726070000000     0.501110000000     0.767760000000    -0.0212483  
C263     C      0.761990000000     0.463300000000     0.772610000000     0.00175328 
C264     C      0.784330000000     0.415960000000     0.783970000000    -0.0862736  
C265     C      0.727060000000     0.498890000000     0.736740000000    -0.023579   
C266     C      0.705160000000     0.546190000000     0.724390000000    -0.122204   
C267     C      0.745780000000     0.478760000000     0.723860000000    -0.0206405  
C268     C      0.687940000000     0.563290000000     0.706160000000     0.0970297  
C269     C      0.677100000000     0.524100000000     0.675170000000     0.416531   
C270     C      0.763060000000     0.461200000000     0.741570000000    -0.035949   
C271     C      0.780340000000     0.444500000000     0.791410000000     0.0513064  
C272     C      0.708580000000     0.517420000000     0.717830000000     0.110619   
C273     C      0.971730000000     0.435290000000     0.936250000000    -0.213635   
C274     C      0.046310000000     0.538490000000     0.084540000000     0.0765375  
C275     C      0.080310000000     0.543060000000     0.045190000000     0.0774406  
C276     C      0.028680000000     0.520910000000     0.067230000000    -0.0855387  
C277     C      0.003790000000     0.472290000000     0.031410000000    -0.0357814  
C278     C      0.985900000000     0.455270000000     0.013730000000    -0.0206084  
C279     C      0.018280000000     0.495870000000     0.019290000000     0.00222845 
C280     C      0.063260000000     0.525470000000     0.027310000000    -0.0852002  
C281     C      0.982190000000     0.461330000000     0.983490000000    -0.022765   
C282     C      0.935900000000     0.434030000000     0.975230000000    -0.120888   
C283     C      0.996780000000     0.484770000000     0.971320000000    -0.0202988  
C284     C      0.918150000000     0.417130000000     0.957350000000     0.100754   
C285     C      0.953550000000     0.418220000000     0.918920000000     0.419102   
C286     C      0.014570000000     0.501880000000     0.989020000000    -0.0353842  
C287     C      0.037000000000     0.514230000000     0.038190000000     0.0519492  
C288     C      0.963050000000     0.443320000000     0.964760000000     0.11211    
Cd1      Cd     0.871190000000     0.356090000000     0.877850000000     0.518815   
Cd2      Cd     0.123240000000     0.605490000000     0.126150000000     0.519064   
Cd3      Cd     0.374470000000     0.856830000000     0.878860000000     0.515858   
Cd4      Cd     0.622290000000     0.107320000000     0.130460000000     0.515927   
Cd5      Cd     0.370150000000     0.355990000000     0.379590000000     0.516135   
Cd6      Cd     0.622500000000     0.606610000000     0.626890000000     0.515972   
Cd7      Cd     0.873530000000     0.855190000000     0.376660000000     0.510675   
Cd8      Cd     0.121340000000     0.104570000000     0.629290000000     0.516177   
F1       F      0.043850000000     0.031540000000     0.618550000000    -0.438575   
F2       F      0.637540000000     0.667780000000     0.538630000000    -0.440022   
F3       F      0.273510000000     0.328760000000     0.421200000000    -0.438677   
F4       F      0.417450000000     0.380540000000     0.475550000000    -0.438445   
F5       F      0.714430000000     0.053370000000     0.146390000000    -0.438727   
F6       F      0.609870000000     0.179920000000     0.208830000000    -0.438856   
F7       F      0.173820000000     0.084570000000     0.723520000000    -0.438378   
F8       F      0.444360000000     0.843740000000     0.795550000000    -0.433183   
F9       F      0.471140000000     0.898230000000     0.905520000000    -0.433804   
F10      F      0.111930000000     0.675560000000     0.207470000000    -0.43234    
F11      F      0.135230000000     0.672800000000     0.042250000000    -0.439181   
F12      F      0.146860000000     0.563130000000     0.224010000000    -0.432934   
F13      F      0.923820000000     0.265290000000     0.861890000000    -0.431587   
F14      F      0.856030000000     0.295480000000     0.966280000000    -0.431798   
F15      F      0.663690000000     0.512240000000     0.651350000000    -0.440081   
F16      F      0.963170000000     0.410960000000     0.891480000000    -0.43766    
H1       H      0.904460000000     0.897300000000     0.471490000000     0.0364006  
H2       H      0.083750000000     0.068090000000     0.535080000000     0.0312685  
H3       H      0.941800000000     0.976670000000     0.515660000000     0.0463554  
H4       H      0.046650000000     0.988940000000     0.490470000000     0.0416441  
H5       H      0.053000000000     0.038980000000     0.503780000000     0.0677469  
H6       H      0.016050000000     0.958880000000     0.459430000000     0.0454395  
H7       H      0.013640000000     0.002370000000     0.581590000000     0.12197    
H8       H      0.934230000000     0.927660000000     0.502610000000     0.0596088  
H9       H      0.976240000000     0.961050000000     0.424470000000     0.058478   
H10      H      0.972530000000     0.006550000000     0.546830000000     0.0461783  
H11      H      0.946600000000     0.929910000000     0.394100000000     0.0359977  
H12      H      0.782760000000     0.804770000000     0.402290000000     0.0362875  
H13      H      0.715960000000     0.649170000000     0.596750000000     0.0325358  
H14      H      0.745710000000     0.723570000000     0.443690000000     0.0463632  
H15      H      0.756620000000     0.726620000000     0.552930000000     0.041788   
H16      H      0.747850000000     0.677530000000     0.565890000000     0.0683006  
H17      H      0.787590000000     0.756600000000     0.522170000000     0.0458044  
H18      H      0.674700000000     0.697210000000     0.509270000000     0.121548   
H19      H      0.752560000000     0.773610000000     0.432100000000     0.059522   
H20      H      0.827580000000     0.754080000000     0.486360000000     0.0589079  
H21      H      0.714790000000     0.693500000000     0.474450000000     0.0458957  
H22      H      0.857050000000     0.785750000000     0.456330000000     0.0363509  
H23      H      0.139260000000     0.184240000000     0.561370000000     0.0368358  
H24      H      0.351720000000     0.274040000000     0.443880000000     0.0359297  
H25      H      0.196280000000     0.214260000000     0.484100000000     0.0465698  
H26      H      0.294950000000     0.241550000000     0.519800000000     0.0443024  
H27      H      0.322060000000     0.242340000000     0.473430000000     0.0697014  
H28      H      0.264620000000     0.210510000000     0.550060000000     0.0473615  
H29      H      0.246120000000     0.293100000000     0.453830000000     0.122612   
H30      H      0.169310000000     0.214730000000     0.530660000000     0.0603399  
H31      H      0.244360000000     0.162750000000     0.550730000000     0.059806   
H32      H      0.226630000000     0.245270000000     0.453810000000     0.045989   
H33      H      0.213740000000     0.132980000000     0.581680000000     0.0377948  
H34      H      0.527030000000     0.570580000000     0.592720000000     0.0383851  
H35      H      0.428490000000     0.441240000000     0.398750000000     0.0316699  
H36      H      0.481280000000     0.492460000000     0.556010000000     0.0481489  
H37      H      0.505750000000     0.476040000000     0.450400000000     0.0422267  
H38      H      0.458150000000     0.473050000000     0.428100000000     0.0685122  
H39      H      0.536330000000     0.507480000000     0.479830000000     0.0473728  
H40      H      0.449850000000     0.416530000000     0.502600000000     0.122891   
H41      H      0.495240000000     0.541140000000     0.562670000000     0.0607832  
H42      H      0.571220000000     0.505940000000     0.519500000000     0.0628944  
H43      H      0.449850000000     0.462130000000     0.526180000000     0.0469578  
H44      H      0.602240000000     0.536210000000     0.549340000000     0.0448072  
H45      H      0.848350000000     0.909560000000     0.287340000000     0.0365483  
H46      H      0.648680000000     0.056380000000     0.221340000000     0.0348135  
H47      H      0.804010000000     0.991720000000     0.255870000000     0.0471576  
H48      H      0.696260000000     0.979420000000     0.257380000000     0.0415486  
H49      H      0.679210000000     0.027160000000     0.252650000000     0.0690955  
H50      H      0.726830000000     0.948790000000     0.287830000000     0.0457743  
H51      H      0.743080000000     0.022070000000     0.182580000000     0.122176   
H52      H      0.818390000000     0.941170000000     0.257750000000     0.0601767  
H53      H      0.759500000000     0.951080000000     0.331660000000     0.0590961  
H54      H      0.773470000000     0.022710000000     0.225730000000     0.0468585  
H55      H      0.789890000000     0.919230000000     0.360610000000     0.0361023  
H56      H      0.463970000000     0.319700000000     0.342050000000     0.0382078  
H57      H      0.528200000000     0.144250000000     0.166000000000     0.0309097  
H58      H      0.509400000000     0.281530000000     0.261560000000     0.0464712  
H59      H      0.481150000000     0.181070000000     0.247220000000     0.0414894  
H60      H      0.496770000000     0.174490000000     0.195450000000     0.0675069  
H61      H      0.450250000000     0.211780000000     0.277310000000     0.0456144  
H62      H      0.572880000000     0.209780000000     0.237980000000     0.122041   
H63      H      0.494730000000     0.289200000000     0.312160000000     0.0604242  
H64      H      0.417400000000     0.251660000000     0.273870000000     0.0586983  
H65      H      0.540380000000     0.250740000000     0.231730000000     0.0459594  
H66      H      0.387310000000     0.282040000000     0.304660000000     0.0370035  
H67      H      0.319520000000     0.943720000000     0.856140000000     0.0378619  
H68      H      0.177250000000     0.018320000000     0.651120000000     0.0342349  
H69      H      0.237460000000     0.975330000000     0.808160000000     0.0475091  
H70      H      0.256430000000     0.983880000000     0.700390000000     0.0424173  
H71      H      0.207560000000     0.987420000000     0.680870000000     0.0693231  
H72      H      0.287720000000     0.953550000000     0.730460000000     0.0478998  
H73      H      0.206520000000     0.049240000000     0.751110000000     0.122581   
H74      H      0.288350000000     0.973840000000     0.826160000000     0.0610048  
H75      H      0.285650000000     0.908990000000     0.758960000000     0.0608235  
H76      H      0.205930000000     0.005410000000     0.778100000000     0.0472566  
H77      H      0.317100000000     0.879490000000     0.789410000000     0.0401457  
H78      H      0.581960000000     0.698350000000     0.658160000000     0.0404576  
H79      H      0.417990000000     0.766500000000     0.848610000000     0.0321513  
H80      H      0.501230000000     0.739700000000     0.699150000000     0.0479228  
H81      H      0.498960000000     0.725240000000     0.807920000000     0.0427191  
H82      H      0.447970000000     0.735670000000     0.818420000000     0.0682106  
H83      H      0.529180000000     0.694400000000     0.777280000000     0.04602    
H84      H      0.475110000000     0.807690000000     0.766620000000     0.123973   
H85      H      0.552400000000     0.729340000000     0.688810000000     0.061531   
H86      H      0.524810000000     0.657120000000     0.740200000000     0.0591686  
H87      H      0.470990000000     0.770500000000     0.729760000000     0.0466889  
H88      H      0.555010000000     0.626800000000     0.709400000000     0.0372395  
H89      H      0.577510000000     0.016360000000     0.102980000000     0.0379673  
H90      H      0.392530000000     0.922230000000     0.961180000000     0.0319149  
H91      H      0.546690000000     0.965710000000     0.022530000000     0.0478751  
H92      H      0.448580000000     0.997720000000     0.989620000000     0.0420522  
H93      H      0.421740000000     0.952750000000     0.992510000000     0.0680367  
H94      H      0.478060000000     0.028550000000     0.021080000000     0.0455276  
H95      H      0.498070000000     0.931810000000     0.940960000000     0.123633   
H96      H      0.547410000000     0.985350000000     0.072850000000     0.0599177  
H97      H      0.523150000000     0.056740000000     0.018570000000     0.0600165  
H98      H      0.516860000000     0.934550000000     0.991800000000     0.0467115  
H99      H      0.553190000000     0.087210000000     0.049380000000     0.0366246  
H100     H      0.966110000000     0.810000000000     0.347190000000     0.0364347  
H101     H      0.031690000000     0.652800000000     0.153660000000     0.0350465  
H102     H      0.016550000000     0.778990000000     0.266210000000     0.0470359  
H103     H      0.980500000000     0.685090000000     0.233300000000     0.0431218  
H104     H      0.000690000000     0.683040000000     0.183470000000     0.0694841  
H105     H      0.949570000000     0.714500000000     0.264710000000     0.0459985  
H106     H      0.075370000000     0.705870000000     0.236650000000     0.124152   
H107     H      0.996920000000     0.780360000000     0.316350000000     0.0602269  
H108     H      0.921570000000     0.758390000000     0.263590000000     0.0590517  
H109     H      0.047480000000     0.749590000000     0.234780000000     0.046927   
H110     H      0.891310000000     0.787860000000     0.295200000000     0.0360117  
H111     H      0.282050000000     0.809630000000     0.905290000000     0.0364422  
H112     H      0.214110000000     0.654620000000     0.099870000000     0.0351858  
H113     H      0.228350000000     0.778700000000     0.984600000000     0.0470305  
H114     H      0.267360000000     0.687490000000     0.022050000000     0.0417962  
H115     H      0.244980000000     0.685370000000     0.070550000000     0.0692073  
H116     H      0.298410000000     0.717710000000     0.991630000000     0.0457666  
H117     H      0.171650000000     0.703820000000     0.013690000000     0.121979   
H118     H      0.250900000000     0.779560000000     0.935360000000     0.0600823  
H119     H      0.323780000000     0.763340000000     0.993660000000     0.0592576  
H120     H      0.197320000000     0.748560000000     0.015170000000     0.0467058  
H121     H      0.354400000000     0.793250000000     0.962860000000     0.0372568  
H122     H      0.291920000000     0.425260000000     0.361440000000     0.0448921  
H123     H      0.198840000000     0.533680000000     0.144370000000     0.0322657  
H124     H      0.262670000000     0.496590000000     0.300420000000     0.0479098  
H125     H      0.225940000000     0.459640000000     0.204560000000     0.0421933  
H126     H      0.229090000000     0.503060000000     0.174610000000     0.0683421  
H127     H      0.256730000000     0.429620000000     0.235520000000     0.0465338  
H128     H      0.180980000000     0.529260000000     0.251970000000     0.124161   
H129     H      0.260750000000     0.454730000000     0.330860000000     0.0631526  
H130     H      0.306400000000     0.425060000000     0.253170000000     0.0589124  
H131     H      0.231700000000     0.526460000000     0.269580000000     0.0482105  
H132     H      0.336720000000     0.395310000000     0.284410000000     0.0364452  
H133     H      0.027720000000     0.138480000000     0.669870000000     0.0429459  
H134     H      0.929030000000     0.331710000000     0.789750000000     0.0360981  
H135     H      0.985440000000     0.178940000000     0.751000000000     0.0497991  
H136     H      0.007990000000     0.281500000000     0.756870000000     0.044558   
H137     H      0.959180000000     0.301560000000     0.758950000000     0.0701718  
H138     H      0.038160000000     0.250960000000     0.725890000000     0.0472772  
H139     H      0.956290000000     0.236950000000     0.826310000000     0.12524    
H140     H      0.996960000000     0.169090000000     0.699690000000     0.0617472  
H141     H      0.073950000000     0.213300000000     0.730050000000     0.062918   
H142     H      0.954560000000     0.209670000000     0.780990000000     0.0478438  
H143     H      0.103980000000     0.182660000000     0.699470000000     0.0429629  
H144     H      0.666770000000     0.198080000000     0.101690000000     0.0430399  
H145     H      0.779490000000     0.307840000000     0.903910000000     0.0323708  
H146     H      0.747120000000     0.236450000000     0.057660000000     0.0494772  
H147     H      0.742010000000     0.228650000000     0.948240000000     0.0434855  
H148     H      0.748090000000     0.278090000000     0.933900000000     0.0687647  
H149     H      0.710830000000     0.198540000000     0.978730000000     0.0468012  
H150     H      0.819520000000     0.264380000000     0.994550000000     0.12525    
H151     H      0.696230000000     0.229000000000     0.070900000000     0.0614618  
H152     H      0.714490000000     0.158680000000     0.012780000000     0.062602   
H153     H      0.777450000000     0.267260000000     0.027190000000     0.0473133  
H154     H      0.684410000000     0.128460000000     0.043820000000     0.0418546  
H155     H      0.804530000000     0.376750000000     0.795030000000     0.0379638  
H156     H      0.686050000000     0.585480000000     0.711990000000     0.0315747  
H157     H      0.777580000000     0.446240000000     0.730890000000     0.0472968  
H158     H      0.711580000000     0.516140000000     0.778380000000     0.0415177  
H159     H      0.716090000000     0.555590000000     0.743250000000     0.0680293  
H160     H      0.741640000000     0.485400000000     0.809330000000     0.0455879  
H161     H      0.696020000000     0.484250000000     0.687340000000     0.121991   
H162     H      0.773680000000     0.406870000000     0.764780000000     0.0603096  
H163     H      0.792020000000     0.476920000000     0.823250000000     0.0594762  
H164     H      0.747420000000     0.476830000000     0.700020000000     0.0464557  
H165     H      0.822200000000     0.446000000000     0.853370000000     0.0377699  
H166     H      0.100440000000     0.551350000000     0.035900000000     0.0410567  
H167     H      0.897260000000     0.410490000000     0.966370000000     0.0372106  
H168     H      0.024990000000     0.520120000000     0.979050000000     0.0484342  
H169     H      0.975290000000     0.437100000000     0.023660000000     0.044915   
H170     H      0.928180000000     0.440040000000     0.997020000000     0.0704658  
H171     H      0.006530000000     0.466750000000     0.054510000000     0.0471993  
H172     H      0.992720000000     0.441850000000     0.927480000000     0.123304   
H173     H      0.070800000000     0.520530000000     0.005170000000     0.0616852  
H174     H      0.008390000000     0.513030000000     0.076460000000     0.0602548  
H175     H      0.994040000000     0.490220000000     0.948190000000     0.0469088  
H176     H      0.038980000000     0.543280000000     0.106810000000     0.039411   
N1       N      0.066470000000     0.052270000000     0.576100000000    -0.229018   
N2       N      0.923470000000     0.911310000000     0.430600000000    -0.179462   
N3       N      0.677290000000     0.656560000000     0.570870000000    -0.229177   
N4       N      0.822030000000     0.797600000000     0.427220000000    -0.179213   
N5       N      0.316260000000     0.301480000000     0.431650000000    -0.22836    
N6       N      0.174330000000     0.156480000000     0.573790000000    -0.179357   
N7       N      0.421800000000     0.410940000000     0.433550000000    -0.229456   
N8       N      0.566900000000     0.555520000000     0.573220000000    -0.177264   
N9       N      0.678190000000     0.056410000000     0.184330000000    -0.22876    
N10      N      0.821260000000     0.912070000000     0.326060000000    -0.179482   
N11      N      0.568380000000     0.159640000000     0.184680000000    -0.229079   
N12      N      0.423450000000     0.303050000000     0.325550000000    -0.179098   
N13      N      0.174110000000     0.051190000000     0.683820000000    -0.228864   
N14      N      0.320530000000     0.909450000000     0.824970000000    -0.178524   
N15      N      0.428880000000     0.804550000000     0.825030000000    -0.228023   
N16      N      0.570600000000     0.660360000000     0.681540000000    -0.178547   
N17      N      0.428190000000     0.909390000000     0.933270000000    -0.228588   
N18      N      0.567570000000     0.053980000000     0.078330000000    -0.179163   
N19      N      0.071150000000     0.661910000000     0.177670000000    -0.227312   
N20      N      0.926530000000     0.801120000000     0.323390000000    -0.179717   
N21      N      0.175300000000     0.661600000000     0.074080000000    -0.228541   
N22      N      0.320440000000     0.803610000000     0.931900000000    -0.179417   
N23      N      0.172880000000     0.549270000000     0.180500000000    -0.228508   
N24      N      0.316540000000     0.408160000000     0.325150000000    -0.177688   
N25      N      0.925000000000     0.301830000000     0.825360000000    -0.227551   
N26      N      0.068040000000     0.158360000000     0.682510000000    -0.176974   
N27      N      0.817220000000     0.303530000000     0.931880000000    -0.227961   
N28      N      0.673510000000     0.161050000000     0.075020000000    -0.177265   
N29      N      0.674030000000     0.552410000000     0.681710000000    -0.229359   
N30      N      0.815640000000     0.409200000000     0.826310000000    -0.178762   
N31      N      0.926870000000     0.409170000000     0.929460000000    -0.227997   
N32      N      0.071830000000     0.549580000000     0.073520000000    -0.177868   
O1       O      0.846190000000     0.400980000000     0.866080000000    -0.245925   
O2       O      0.860910000000     0.325810000000     0.920930000000    -0.19253    
O3       O      0.916130000000     0.383610000000     0.887150000000    -0.202872   
O4       O      0.900540000000     0.343850000000     0.833710000000    -0.242186   
O5       O      0.897920000000     0.311900000000     0.867280000000    -0.197455   
O6       O      0.884130000000     0.384190000000     0.921870000000    -0.241659   
O7       O      0.837830000000     0.366390000000     0.836370000000    -0.241766   
O8       O      0.825060000000     0.331910000000     0.890980000000    -0.251086   
O9       O      0.131560000000     0.639630000000     0.085660000000    -0.204638   
O10      O      0.136430000000     0.582480000000     0.173280000000    -0.197636   
O11      O      0.111790000000     0.578560000000     0.080870000000    -0.238836   
O12      O      0.077420000000     0.629740000000     0.139710000000    -0.242607   
O13      O      0.115160000000     0.640800000000     0.165460000000    -0.19479    
O14      O      0.081580000000     0.573560000000     0.116920000000    -0.23978    
O15      O      0.168820000000     0.630280000000     0.112760000000    -0.245448   
O16      O      0.161100000000     0.569250000000     0.135390000000    -0.250777   
O17      O      0.409070000000     0.847860000000     0.838050000000    -0.194161   
O18      O      0.347480000000     0.900580000000     0.867120000000    -0.244443   
O19      O      0.421200000000     0.878780000000     0.893920000000    -0.199007   
O20      O      0.364480000000     0.825060000000     0.920980000000    -0.244145   
O21      O      0.328260000000     0.832940000000     0.891830000000    -0.24932    
O22      O      0.383930000000     0.889270000000     0.920540000000    -0.249598   
O23      O      0.396610000000     0.811560000000     0.863680000000    -0.251032   
O24      O      0.345560000000     0.867940000000     0.834110000000    -0.239764   
O25      O      0.587660000000     0.097430000000     0.089860000000    -0.245095   
O26      O      0.613320000000     0.142650000000     0.169380000000    -0.200395   
O27      O      0.653220000000     0.117780000000     0.086880000000    -0.236254   
O28      O      0.667590000000     0.080860000000     0.141290000000    -0.204586   
O29      O      0.635440000000     0.081110000000     0.175810000000    -0.247167   
O30      O      0.644590000000     0.152740000000     0.115930000000    -0.236434   
O31      O      0.599340000000     0.061910000000     0.117130000000    -0.245946   
O32      O      0.575000000000     0.125920000000     0.148240000000    -0.253324   
O33      O      0.378610000000     0.318770000000     0.342280000000    -0.244291   
O34      O      0.323450000000     0.340330000000     0.401390000000    -0.202397   
O35      O      0.353340000000     0.375340000000     0.331840000000    -0.245074   
O36      O      0.400000000000     0.398520000000     0.389310000000    -0.253526   
O37      O      0.393860000000     0.370720000000     0.426270000000    -0.204584   
O38      O      0.331370000000     0.391070000000     0.370570000000    -0.231565   
O39      O      0.417130000000     0.338260000000     0.360360000000    -0.245621   
O40      O      0.360810000000     0.314900000000     0.412060000000    -0.24414    
O41      O      0.612250000000     0.571970000000     0.587490000000    -0.231053   
O42      O      0.632730000000     0.636890000000     0.583650000000    -0.20502    
O43      O      0.644020000000     0.560930000000     0.641510000000    -0.205754   
O44      O      0.588780000000     0.616570000000     0.668300000000    -0.24336    
O45      O      0.602290000000     0.652550000000     0.642630000000    -0.241894   
O46      O      0.654560000000     0.596040000000     0.669610000000    -0.25112    
O47      O      0.574620000000     0.588470000000     0.610130000000    -0.242322   
O48      O      0.669430000000     0.628150000000     0.611730000000    -0.251544   
O49      O      0.860630000000     0.882040000000     0.331790000000    -0.246769   
O50      O      0.888320000000     0.876810000000     0.424130000000    -0.246174   
O51      O      0.882240000000     0.821120000000     0.336130000000    -0.248426   
O52      O      0.865540000000     0.820030000000     0.416220000000    -0.245882   
O53      O      0.828150000000     0.829730000000     0.389250000000    -0.245851   
O54      O      0.919800000000     0.832210000000     0.362170000000    -0.248277   
O55      O      0.832080000000     0.887870000000     0.369080000000    -0.246749   
O56      O      0.910140000000     0.892590000000     0.385400000000    -0.247741   
O57      O      0.147420000000     0.091950000000     0.675300000000    -0.203433   
O58      O      0.167590000000     0.118590000000     0.605290000000    -0.246208   
O59      O      0.112730000000     0.143800000000     0.664300000000    -0.234498   
O60      O      0.083520000000     0.068270000000     0.621310000000    -0.200781   
O61      O      0.102160000000     0.086390000000     0.582020000000    -0.253327   
O62      O      0.074470000000     0.121350000000     0.649830000000    -0.235834   
O63      O      0.149840000000     0.061440000000     0.640290000000    -0.248302   
O64      O      0.130220000000     0.144350000000     0.595100000000    -0.246905   


