data_structure

_audit_creation_method RASPA-1.0
_audit_creation_date 2023-5-22
_audit_author_name 'Poobodin Mano'

_cell_length_a    45.8905
_cell_length_b    47.2046
_cell_length_c    44.9912
_cell_angle_alpha 90
_cell_angle_beta  90
_cell_angle_gamma 90
_cell_volume      97461.9

_symmetry_cell_setting          triclinic
_symmetry_space_group_name_Hall 'P 1'
_symmetry_space_group_name_H-M  'P 1'
_symmetry_Int_Tables_number     1

_symmetry_equiv_pos_as_xyz 'x,y,z'

loop_
_atom_site_label
_atom_site_type_symbol
_atom_site_fract_x
_atom_site_fract_y
_atom_site_fract_z
_atom_site_charge
C1       C      0.904960000000     0.393970000000     0.916960000000     0.347009   
C2       C      0.832360000000     0.393910000000     0.848460000000     0.356287   
C3       C      0.905300000000     0.319340000000     0.845240000000     0.347917   
C4       C      0.836690000000     0.316270000000     0.917430000000     0.349931   
C5       C      0.081080000000     0.571870000000     0.095420000000     0.35806    
C6       C      0.160600000000     0.574490000000     0.163870000000     0.359848   
C7       C      0.152720000000     0.643890000000     0.088140000000     0.348575   
C8       C      0.085610000000     0.642760000000     0.167750000000     0.354847   
C9       C      0.330040000000     0.820140000000     0.909170000000     0.355523   
C10      C      0.404580000000     0.893740000000     0.912950000000     0.347802   
C11      C      0.405860000000     0.821790000000     0.842140000000     0.35077    
C12      C      0.331360000000     0.894800000000     0.840730000000     0.347673   
C13      C      0.585180000000     0.141160000000     0.164090000000     0.348677   
C14      C      0.655740000000     0.063910000000     0.163610000000     0.351368   
C15      C      0.580600000000     0.068120000000     0.095670000000     0.355056   
C16      C      0.661580000000     0.136720000000     0.095120000000     0.356269   
C17      C      0.334210000000     0.389660000000     0.337100000000     0.348766   
C18      C      0.406510000000     0.316470000000     0.343050000000     0.358056   
C19      C      0.405850000000     0.394000000000     0.411070000000     0.357806   
C20      C      0.333010000000     0.320970000000     0.412830000000     0.347315   
C21      C      0.584400000000     0.639350000000     0.671530000000     0.355407   
C22      C      0.582910000000     0.569120000000     0.592180000000     0.351971   
C23      C      0.650540000000     0.642920000000     0.594590000000     0.355762   
C24      C      0.654090000000     0.567580000000     0.667470000000     0.346033   
C25      C      0.834330000000     0.892390000000     0.346310000000     0.35936    
C26      C      0.905400000000     0.819010000000     0.344060000000     0.34927    
C27      C      0.900760000000     0.891160000000     0.420900000000     0.35457    
C28      C      0.831760000000     0.817160000000     0.417210000000     0.348034   
C29      C      0.084640000000     0.148770000000     0.662180000000     0.35473    
C30      C      0.081760000000     0.070200000000     0.593210000000     0.349324   
C31      C      0.151330000000     0.148480000000     0.591470000000     0.356519   
C32      C      0.153540000000     0.069340000000     0.660000000000     0.353755   
C33      C      0.930900000000     0.955470000000     0.455950000000    -0.114847   
C34      C      0.073800000000     0.041710000000     0.550360000000     0.0775785  
C35      C      0.037430000000     0.044700000000     0.587660000000     0.0770698  
C36      C      0.056160000000     0.023720000000     0.533490000000    -0.0856388  
C37      C      0.020490000000     0.973940000000     0.510720000000    -0.0330707  
C38      C      0.002280000000     0.956500000000     0.493810000000    -0.0288242  
C39      C      0.009110000000     0.997460000000     0.525990000000    -0.000812052
C40      C      0.019240000000     0.026780000000     0.571380000000    -0.0862886  
C41      C      0.972280000000     0.962200000000     0.491730000000    -0.00729675 
C42      C      0.955990000000     0.914340000000     0.474160000000    -0.0955204  
C43      C      0.960900000000     0.985680000000     0.507060000000    -0.0285342  
C44      C      0.937690000000     0.897360000000     0.456970000000     0.080488   
C45      C      0.912410000000     0.937970000000     0.439220000000     0.171168   
C46      C      0.979090000000     0.003100000000     0.523970000000    -0.0323454  
C47      C      0.028440000000     0.016130000000     0.543870000000     0.0526659  
C48      C      0.952920000000     0.943780000000     0.473600000000     0.0673718  
C49      C      0.675080000000     0.686880000000     0.531500000000    -0.114513   
C50      C      0.822970000000     0.791440000000     0.461760000000     0.0753023  
C51      C      0.787610000000     0.791470000000     0.423330000000     0.0763541  
C52      C      0.805240000000     0.774130000000     0.479270000000    -0.0870235  
C53      C      0.770250000000     0.724530000000     0.503540000000    -0.0333698  
C54      C      0.752110000000     0.707550000000     0.521010000000    -0.0295312  
C55      C      0.758700000000     0.747210000000     0.487080000000    -0.00163479 
C56      C      0.769280000000     0.774250000000     0.440290000000    -0.0867242  
C57      C      0.722000000000     0.712890000000     0.522490000000    -0.00729477 
C58      C      0.711730000000     0.686360000000     0.569590000000    -0.0955489  
C59      C      0.710450000000     0.735560000000     0.505990000000    -0.0289715  
C60      C      0.693480000000     0.669620000000     0.587050000000     0.0801501  
C61      C      0.656840000000     0.670420000000     0.549670000000     0.169858   
C62      C      0.728580000000     0.752500000000     0.488470000000    -0.0325347  
C63      C      0.777990000000     0.765380000000     0.468640000000     0.0521457  
C64      C      0.702760000000     0.695000000000     0.541340000000     0.0667174  
C65      C      0.175390000000     0.194990000000     0.530300000000    -0.114372   
C66      C      0.316470000000     0.275540000000     0.428240000000     0.0754902  
C67      C      0.296410000000     0.316920000000     0.450010000000     0.0753176  
C68      C      0.298640000000     0.258460000000     0.445910000000    -0.0868892  
C69      C      0.270700000000     0.228410000000     0.498570000000    -0.0326368  
C70      C      0.252560000000     0.211640000000     0.516280000000    -0.0291399  
C71      C      0.259900000000     0.253040000000     0.484870000000    -0.00173761 
C72      C      0.278180000000     0.300480000000     0.467920000000    -0.0872406  
C73      C      0.223190000000     0.219030000000     0.520560000000    -0.00674328 
C74      C      0.213630000000     0.190390000000     0.566420000000    -0.0943608  
C75      C      0.212390000000     0.243650000000     0.506850000000    -0.0291672  
C76      C      0.195250000000     0.173600000000     0.583720000000     0.0823503  
C77      C      0.157120000000     0.178350000000     0.548230000000     0.172713   
C78      C      0.230560000000     0.260490000000     0.489260000000    -0.0322797  
C79      C      0.279160000000     0.270870000000     0.466020000000     0.0521739  
C80      C      0.203880000000     0.201120000000     0.539250000000     0.0677957  
C81      C      0.451960000000     0.454370000000     0.433710000000    -0.114146   
C82      C      0.578170000000     0.529130000000     0.560390000000     0.077088   
C83      C      0.537480000000     0.558930000000     0.569160000000     0.0781291  
C84      C      0.561420000000     0.511790000000     0.541910000000    -0.086597   
C85      C      0.516700000000     0.470080000000     0.518330000000    -0.0323668  
C86      C      0.499220000000     0.452850000000     0.500420000000    -0.0288948  
C87      C      0.513650000000     0.499720000000     0.517650000000    -0.00106959 
C88      C      0.520080000000     0.542010000000     0.550910000000    -0.0860918  
C89      C      0.478230000000     0.464820000000     0.481440000000    -0.00646314 
C90      C      0.447710000000     0.421290000000     0.474010000000    -0.0944421  
C91      C      0.475250000000     0.494460000000     0.480690000000    -0.0286513  
C92      C      0.429610000000     0.404550000000     0.456370000000     0.0821606  
C93      C      0.433230000000     0.437500000000     0.416540000000     0.171568   
C94      C      0.492780000000     0.511690000000     0.498520000000    -0.0318275  
C95      C      0.531950000000     0.518080000000     0.537010000000     0.0530936  
C96      C      0.459270000000     0.446480000000     0.462740000000     0.0677221  
C97      C      0.774780000000     0.938970000000     0.320970000000    -0.115037   
C98      C      0.697600000000     0.034560000000     0.168580000000     0.0775349  
C99      C      0.664880000000     0.039750000000     0.209000000000     0.0784539  
C100     C      0.715440000000     0.016880000000     0.185580000000    -0.0864679  
C101     C      0.757520000000     0.995050000000     0.232380000000    -0.032399   
C102     C      0.775410000000     0.978610000000     0.250680000000    -0.0288252  
C103     C      0.727020000000     0.992470000000     0.233830000000    -0.00114781 
C104     C      0.682230000000     0.022210000000     0.226640000000    -0.0861549  
C105     C      0.763210000000     0.959270000000     0.270910000000    -0.0069567  
C106     C      0.807920000000     0.930160000000     0.280700000000    -0.0953641  
C107     C      0.732750000000     0.956460000000     0.272150000000    -0.0289463  
C108     C      0.825270000000     0.914270000000     0.299940000000     0.0822702  
C109     C      0.792880000000     0.923420000000     0.340090000000     0.173615   
C110     C      0.714870000000     0.972830000000     0.253800000000    -0.0320529  
C111     C      0.707950000000     0.010610000000     0.215060000000     0.0531733  
C112     C      0.782130000000     0.942410000000     0.291030000000     0.068214   
C113     C      0.468690000000     0.272690000000     0.318580000000    -0.114513   
C114     C      0.541630000000     0.167800000000     0.170410000000     0.0762061  
C115     C      0.577450000000     0.167560000000     0.208390000000     0.0769906  
C116     C      0.523770000000     0.185390000000     0.187490000000    -0.0868108  
C117     C      0.483840000000     0.207630000000     0.236070000000    -0.032863   
C118     C      0.466120000000     0.224530000000     0.254060000000    -0.0291902  
C119     C      0.514020000000     0.212540000000     0.234460000000    -0.00135527 
C120     C      0.560180000000     0.185190000000     0.226030000000    -0.0862436  
C121     C      0.478140000000     0.246770000000     0.270850000000    -0.00698138 
C122     C      0.431660000000     0.273070000000     0.280870000000    -0.0952201  
C123     C      0.508290000000     0.251770000000     0.269120000000    -0.0288463  
C124     C      0.414310000000     0.289720000000     0.299350000000     0.0810428  
C125     C      0.450660000000     0.289060000000     0.337040000000     0.171051   
C126     C      0.526020000000     0.234850000000     0.251150000000    -0.0322014  
C127     C      0.532920000000     0.194240000000     0.215720000000     0.0525967  
C128     C      0.459330000000     0.264560000000     0.290250000000     0.0673048  
C129     C      0.215120000000     0.024680000000     0.684340000000    -0.114576   
C130     C      0.287070000000     0.920060000000     0.833350000000     0.0742324  
C131     C      0.323730000000     0.920840000000     0.796210000000     0.074777   
C132     C      0.269120000000     0.937220000000     0.815870000000    -0.0875707  
C133     C      0.243610000000     0.986660000000     0.780860000000    -0.0334275  
C134     C      0.226070000000     0.003640000000     0.762730000000    -0.0299855  
C135     C      0.259720000000     0.964160000000     0.768680000000    -0.00219881 
C136     C      0.306320000000     0.937900000000     0.778130000000    -0.0876419  
C137     C      0.224200000000     0.998460000000     0.732000000000    -0.00732955 
C138     C      0.178170000000     0.025520000000     0.722120000000    -0.0953663  
C139     C      0.240190000000     0.975820000000     0.719880000000    -0.0295485  
C140     C      0.161050000000     0.042490000000     0.703710000000     0.0793154  
C141     C      0.197320000000     0.041350000000     0.665950000000     0.169447   
C142     C      0.257770000000     0.958910000000     0.737990000000    -0.0328416  
C143     C      0.278620000000     0.946250000000     0.787830000000     0.0515495  
C144     C      0.205660000000     0.016580000000     0.712650000000     0.0662708  
C145     C      0.530830000000     0.663560000000     0.727170000000    -0.114654   
C146     C      0.415940000000     0.796480000000     0.797640000000     0.0775132  
C147     C      0.449290000000     0.794590000000     0.837860000000     0.0768844  
C148     C      0.433730000000     0.778630000000     0.780820000000    -0.086807   
C149     C      0.484140000000     0.754410000000     0.745020000000    -0.032875   
C150     C      0.501890000000     0.736240000000     0.728480000000    -0.0293651  
C151     C      0.478890000000     0.749190000000     0.775310000000    -0.00165719 
C152     C      0.467540000000     0.776580000000     0.821700000000    -0.0870119  
C153     C      0.514660000000     0.712360000000     0.741830000000    -0.00712852 
C154     C      0.554090000000     0.703670000000     0.704450000000    -0.095179   
C155     C      0.509450000000     0.707150000000     0.772130000000    -0.0290429  
C156     C      0.571370000000     0.685200000000     0.687900000000     0.0806519  
C157     C      0.548700000000     0.645340000000     0.710550000000     0.170554   
C158     C      0.491820000000     0.725400000000     0.788710000000    -0.0322251  
C159     C      0.459850000000     0.768400000000     0.792820000000     0.0529142  
C160     C      0.533350000000     0.692950000000     0.724170000000     0.0670924  
C161     C      0.534710000000     0.008340000000     0.071050000000    -0.114703   
C162     C      0.431370000000     0.936340000000     0.920080000000     0.0738759  
C163     C      0.429620000000     0.901900000000     0.958400000000     0.0745363  
C164     C      0.448810000000     0.953860000000     0.937690000000    -0.087614   
C165     C      0.470610000000     0.993090000000     0.986400000000    -0.033233   
C166     C      0.487660000000     0.010380000000     0.004670000000    -0.0300267  
C167     C      0.475210000000     0.963660000000     0.985530000000    -0.00218035 
C168     C      0.447040000000     0.918870000000     0.976590000000    -0.0873268  
C169     C      0.509720000000     0.998630000000     0.022520000000    -0.00735328 
C170     C      0.537530000000     0.043380000000     0.032460000000    -0.0955011  
C171     C      0.514390000000     0.969210000000     0.021580000000    -0.0297366  
C172     C      0.554460000000     0.060230000000     0.051150000000     0.0797985  
C173     C      0.551340000000     0.025880000000     0.089700000000     0.169467   
C174     C      0.497350000000     0.951930000000     0.003300000000    -0.0327932  
C175     C      0.456850000000     0.945230000000     0.966350000000     0.0513585  
C176     C      0.527690000000     0.016950000000     0.042180000000     0.0663078  
C177     C      0.062970000000     0.696340000000     0.222910000000    -0.11487    
C178     C      0.910670000000     0.781860000000     0.308790000000     0.0741967  
C179     C      0.952440000000     0.806080000000     0.326560000000     0.074552   
C180     C      0.928080000000     0.764550000000     0.290960000000    -0.0875036  
C181     C      0.970800000000     0.720360000000     0.269150000000    -0.0328412  
C182     C      0.988620000000     0.702850000000     0.251940000000    -0.0300533  
C183     C      0.977380000000     0.749290000000     0.272590000000    -0.00225938 
C184     C      0.970520000000     0.789030000000     0.309140000000    -0.0872543  
C185     C      0.013560000000     0.713790000000     0.237930000000    -0.00710195 
C186     C      0.020780000000     0.675400000000     0.200240000000    -0.0951797  
C187     C      0.020220000000     0.742650000000     0.241360000000    -0.0299525  
C188     C      0.039030000000     0.657920000000     0.183600000000     0.0803868  
C189     C      0.080930000000     0.678060000000     0.206480000000     0.170578   
C190     C      0.002280000000     0.760230000000     0.258410000000    -0.0323943  
C191     C      0.958440000000     0.767890000000     0.291050000000     0.051504   
C192     C      0.032680000000     0.695080000000     0.219960000000     0.0667674  
C193     C      0.289230000000     0.756680000000     0.933140000000    -0.114682   
C194     C      0.171700000000     0.689170000000     0.075490000000     0.0766234  
C195     C      0.181170000000     0.649690000000     0.044380000000     0.0773044  
C196     C      0.188140000000     0.706690000000     0.056940000000    -0.0861711  
C197     C      0.211360000000     0.741530000000     0.005350000000    -0.0331748  
C198     C      0.228980000000     0.758830000000     0.987650000000    -0.0294923  
C199     C      0.219850000000     0.713630000000     0.012060000000    -0.00125287 
C200     C      0.197780000000     0.666600000000     0.025340000000    -0.0863058  
C201     C      0.255480000000     0.748610000000     0.976220000000    -0.00720242 
C202     C      0.279410000000     0.795380000000     0.966300000000    -0.0953906  
C203     C      0.263840000000     0.720630000000     0.982710000000    -0.0287087  
C204     C      0.298260000000     0.812310000000     0.949710000000     0.0800598  
C205     C      0.308450000000     0.773970000000     0.917010000000     0.169841   
C206     C      0.246240000000     0.703350000000     0.000410000000    -0.0322593  
C207     C      0.201560000000     0.695460000000     0.031570000000     0.0525333  
C208     C      0.274680000000     0.767210000000     0.958120000000     0.0668128  
C209     C      0.224600000000     0.533030000000     0.187910000000    -0.113846   
C210     C      0.288930000000     0.411970000000     0.326560000000     0.0761057  
C211     C      0.328970000000     0.418240000000     0.293920000000     0.0773806  
C212     C      0.271720000000     0.429740000000     0.309020000000    -0.0867619  
C213     C      0.236120000000     0.456040000000     0.259260000000    -0.0324243  
C214     C      0.219290000000     0.474780000000     0.242430000000    -0.0290466  
C215     C      0.265660000000     0.461800000000     0.264930000000    -0.00127584 
C216     C      0.312390000000     0.436120000000     0.275870000000    -0.086243   
C217     C      0.231610000000     0.499710000000     0.230830000000    -0.00628502 
C218     C      0.185280000000     0.526600000000     0.222480000000    -0.0938127  
C219     C      0.261200000000     0.505380000000     0.236310000000    -0.0285464  
C220     C      0.168550000000     0.545550000000     0.205950000000     0.0842285  
C221     C      0.207520000000     0.552390000000     0.171830000000     0.172721   
C222     C      0.278020000000     0.486650000000     0.253160000000    -0.0317538  
C223     C      0.283430000000     0.442210000000     0.283400000000     0.0527641  
C224     C      0.213540000000     0.519890000000     0.213400000000     0.0683026  
C225     C      0.028260000000     0.199700000000     0.685700000000    -0.114914   
C226     C      0.944390000000     0.286580000000     0.840360000000     0.0741361  
C227     C      0.917970000000     0.301120000000     0.797710000000     0.0745069  
C228     C      0.962360000000     0.269480000000     0.822870000000    -0.087844   
C229     C      0.007390000000     0.249240000000     0.778080000000    -0.0330633  
C230     C      0.025400000000     0.232850000000     0.759860000000    -0.0299324  
C231     C      0.977170000000     0.250360000000     0.773020000000    -0.00246227 
C232     C      0.935500000000     0.284210000000     0.779570000000    -0.0875799  
C233     C      0.013610000000     0.217180000000     0.736150000000    -0.00717437 
C234     C      0.055930000000     0.184400000000     0.728070000000    -0.0953781  
C235     C      0.983370000000     0.218150000000     0.731230000000    -0.0298737  
C236     C      0.073440000000     0.168240000000     0.709240000000     0.0800095  
C237     C      0.046460000000     0.183700000000     0.667090000000     0.17072    
C238     C      0.965370000000     0.234550000000     0.749430000000    -0.0326325  
C239     C      0.958080000000     0.268170000000     0.792060000000     0.0515551  
C240     C      0.032760000000     0.200080000000     0.716440000000     0.066675   
C241     C      0.715390000000     0.191090000000     0.073690000000    -0.114798   
C242     C      0.802800000000     0.278330000000     0.921210000000     0.0763505  
C243     C      0.822160000000     0.299230000000     0.964870000000     0.0761602  
C244     C      0.785960000000     0.259790000000     0.938260000000    -0.0867992  
C245     C      0.740240000000     0.235160000000     0.979530000000    -0.0328569  
C246     C      0.723070000000     0.217440000000     0.997220000000    -0.0293503  
C247     C      0.768950000000     0.241860000000     0.987950000000    -0.0015689  
C248     C      0.805540000000     0.281100000000     0.982590000000    -0.0866982  
C249     C      0.734150000000     0.206130000000     0.023810000000    -0.00742982 
C250     C      0.698790000000     0.166200000000     0.030310000000    -0.0957499  
C251     C      0.762870000000     0.212700000000     0.032180000000    -0.0294475  
C252     C      0.681630000000     0.149040000000     0.048480000000     0.0799981  
C253     C      0.698200000000     0.173380000000     0.091600000000     0.169699   
C254     C      0.780080000000     0.230300000000     0.014430000000    -0.0326693  
C255     C      0.787080000000     0.261080000000     0.969370000000     0.0522433  
C256     C      0.715770000000     0.187650000000     0.042820000000     0.0667792  
C257     C      0.767880000000     0.432730000000     0.821210000000    -0.1149     
C258     C      0.699510000000     0.544980000000     0.676720000000     0.0745556  
C259     C      0.660260000000     0.538880000000     0.710400000000     0.0748321  
C260     C      0.717360000000     0.527860000000     0.694330000000    -0.0871483  
C261     C      0.744830000000     0.478460000000     0.727250000000    -0.0332171  
C262     C      0.762410000000     0.461530000000     0.745370000000    -0.02967    
C263     C      0.725170000000     0.497930000000     0.739830000000    -0.0017186  
C264     C      0.677470000000     0.521620000000     0.728470000000    -0.0861397  
C265     C      0.760670000000     0.463610000000     0.776480000000    -0.00748492 
C266     C      0.808760000000     0.441670000000     0.789230000000    -0.0956994  
C267     C      0.741060000000     0.483070000000     0.789070000000    -0.0293358  
C268     C      0.826030000000     0.424910000000     0.807710000000     0.0797201  
C269     C      0.785720000000     0.416230000000     0.839710000000     0.169817   
C270     C      0.723560000000     0.500060000000     0.770970000000    -0.0326834  
C271     C      0.706440000000     0.515970000000     0.720610000000     0.0515579  
C272     C      0.779300000000     0.445610000000     0.795770000000     0.0667319  
C273     C      0.039210000000     0.509680000000     0.070030000000    -0.114946   
C274     C      0.950860000000     0.414850000000     0.928020000000     0.0744236  
C275     C      0.909370000000     0.426680000000     0.956870000000     0.0748321  
C276     C      0.968280000000     0.432690000000     0.945280000000    -0.0875236  
C277     C      0.995570000000     0.484070000000     0.975270000000    -0.0334084  
C278     C      0.012830000000     0.501500000000     0.993190000000    -0.0295427  
C279     C      0.974280000000     0.466410000000     0.987970000000    -0.00201068 
C280     C      0.926150000000     0.444640000000     0.974630000000    -0.0873256  
C281     C      0.009260000000     0.501550000000     0.024220000000    -0.00742124 
C282     C      0.033530000000     0.547920000000     0.035290000000    -0.095798   
C283     C      0.987940000000     0.483920000000     0.036910000000    -0.0294704  
C284     C      0.050770000000     0.564910000000     0.053570000000     0.0804985  
C285     C      0.056170000000     0.527260000000     0.088300000000     0.170603   
C286     C      0.970630000000     0.466570000000     0.018990000000    -0.0327577  
C287     C      0.956000000000     0.447760000000     0.969000000000     0.0516369  
C288     C      0.027720000000     0.519900000000     0.043320000000     0.0669811  
Cd1      Cd     0.869680000000     0.355860000000     0.881760000000     0.513115   
Cd2      Cd     0.120450000000     0.607940000000     0.128480000000     0.517515   
Cd3      Cd     0.367820000000     0.858100000000     0.876370000000     0.51235    
Cd4      Cd     0.620810000000     0.102910000000     0.129270000000     0.515137   
Cd5      Cd     0.370320000000     0.355630000000     0.375980000000     0.515106   
Cd6      Cd     0.617780000000     0.604020000000     0.631290000000     0.514769   
Cd7      Cd     0.868650000000     0.853750000000     0.381730000000     0.513864   
Cd8      Cd     0.117840000000     0.108900000000     0.626850000000     0.517529   
H1       H      0.029450000000     0.052510000000     0.608820000000     0.0381873  
H2       H      0.941330000000     0.874670000000     0.457850000000     0.0360252  
H3       H      0.969650000000     0.021200000000     0.535190000000     0.0469335  
H4       H      0.011790000000     0.938730000000     0.482070000000     0.0437563  
H5       H      0.972380000000     0.904350000000     0.487950000000     0.0610171  
H6       H      0.043460000000     0.968820000000     0.512050000000     0.0449032  
H7       H      0.927720000000     0.978210000000     0.455390000000     0.0835377  
H8       H      0.998170000000     0.021130000000     0.580480000000     0.0597064  
H9       H      0.064030000000     0.016250000000     0.512200000000     0.061388   
H10      H      0.937840000000     0.990490000000     0.506230000000     0.0472086  
H11      H      0.095000000000     0.047250000000     0.541450000000     0.0414138  
H12      H      0.780080000000     0.797840000000     0.401480000000     0.0387094  
H13      H      0.701740000000     0.663150000000     0.608590000000     0.0357811  
H14      H      0.719070000000     0.770080000000     0.476420000000     0.0464547  
H15      H      0.761650000000     0.690000000000     0.533090000000     0.0430617  
H16      H      0.732750000000     0.692620000000     0.578350000000     0.060577   
H17      H      0.793290000000     0.719640000000     0.502600000000     0.043821   
H18      H      0.667350000000     0.693600000000     0.509860000000     0.0822485  
H19      H      0.748550000000     0.767690000000     0.431060000000     0.0603966  
H20      H      0.812680000000     0.768030000000     0.501210000000     0.0586739  
H21      H      0.687440000000     0.740570000000     0.507020000000     0.0465952  
H22      H      0.843830000000     0.797880000000     0.470860000000     0.0364931  
H23      H      0.295050000000     0.339760000000     0.452220000000     0.0370623  
H24      H      0.204060000000     0.165430000000     0.604380000000     0.0393812  
H25      H      0.221510000000     0.279190000000     0.478800000000     0.0453454  
H26      H      0.261470000000     0.192690000000     0.526360000000     0.0455374  
H27      H      0.235370000000     0.195050000000     0.574440000000     0.0628091  
H28      H      0.293270000000     0.222250000000     0.495860000000     0.0455133  
H29      H      0.167090000000     0.203450000000     0.509560000000     0.0834515  
H30      H      0.263670000000     0.310940000000     0.483420000000     0.0594404  
H31      H      0.299860000000     0.235660000000     0.443490000000     0.0602306  
H32      H      0.189940000000     0.250080000000     0.509960000000     0.0471265  
H33      H      0.331160000000     0.265100000000     0.412860000000     0.038012   
H34      H      0.527400000000     0.577170000000     0.579590000000     0.0403384  
H35      H      0.421520000000     0.385070000000     0.466140000000     0.0380346  
H36      H      0.490060000000     0.534450000000     0.497160000000     0.0466245  
H37      H      0.502300000000     0.430120000000     0.501340000000     0.045088   
H38      H      0.452340000000     0.414590000000     0.496550000000     0.0622609  
H39      H      0.532320000000     0.460110000000     0.533020000000     0.0449451  
H40      H      0.460360000000     0.473900000000     0.424400000000     0.0830766  
H41      H      0.497320000000     0.547470000000     0.548130000000     0.0609565  
H42      H      0.571640000000     0.493760000000     0.531300000000     0.0601071  
H43      H      0.459060000000     0.504410000000     0.466630000000     0.0469631  
H44      H      0.600870000000     0.523530000000     0.563600000000     0.0368174  
H45      H      0.645300000000     0.048480000000     0.218910000000     0.0399013  
H46      H      0.844670000000     0.904610000000     0.290600000000     0.0359743  
H47      H      0.691490000000     0.969930000000     0.255130000000     0.0463204  
H48      H      0.798790000000     0.981540000000     0.249470000000     0.0450268  
H49      H      0.814400000000     0.932280000000     0.257660000000     0.0615032  
H50      H      0.767610000000     0.010270000000     0.217590000000     0.0454643  
H51      H      0.755580000000     0.949320000000     0.329860000000     0.0839768  
H52      H      0.675760000000     0.018270000000     0.249410000000     0.0613069  
H53      H      0.734890000000     0.008050000000     0.175580000000     0.0594504  
H54      H      0.722710000000     0.941430000000     0.287180000000     0.0473138  
H55      H      0.704210000000     0.038970000000     0.145910000000     0.0375692  
H56      H      0.598300000000     0.160860000000     0.217290000000     0.0400263  
H57      H      0.393300000000     0.296250000000     0.290680000000     0.0360248  
H58      H      0.549120000000     0.239470000000     0.250060000000     0.0464965  
H59      H      0.443050000000     0.219810000000     0.255230000000     0.0437337  
H60      H      0.423590000000     0.267390000000     0.259040000000     0.0612277  
H61      H      0.473960000000     0.190340000000     0.223870000000     0.0449185  
H62      H      0.489520000000     0.265380000000     0.326940000000     0.0828666  
H63      H      0.567970000000     0.191240000000     0.247850000000     0.0610699  
H64      H      0.503030000000     0.192190000000     0.178490000000     0.0592095  
H65      H      0.518180000000     0.269000000000     0.281420000000     0.0477232  
H66      H      0.533740000000     0.161400000000     0.148700000000     0.0367827  
H67      H      0.345020000000     0.914870000000     0.787860000000     0.0363005  
H68      H      0.140090000000     0.049170000000     0.712350000000     0.0354756  
H69      H      0.269520000000     0.941440000000     0.727990000000     0.0449753  
H70      H      0.214350000000     0.021120000000     0.772720000000     0.0428529  
H71      H      0.169720000000     0.019300000000     0.743630000000     0.0601448  
H72      H      0.244940000000     0.991480000000     0.804360000000     0.04342    
H73      H      0.236190000000     0.017800000000     0.676220000000     0.0817846  
H74      H      0.314680000000     0.944730000000     0.756790000000     0.0591483  
H75      H      0.247740000000     0.942960000000     0.824100000000     0.0580149  
H76      H      0.238830000000     0.970890000000     0.696410000000     0.0459285  
H77      H      0.278860000000     0.913330000000     0.854820000000     0.0351193  
H78      H      0.456040000000     0.800490000000     0.860110000000     0.0367822  
H79      H      0.586800000000     0.694640000000     0.672550000000     0.0372214  
H80      H      0.487990000000     0.720670000000     0.811940000000     0.0464681  
H81      H      0.505320000000     0.740700000000     0.705130000000     0.0445705  
H82      H      0.557100000000     0.726300000000     0.701860000000     0.0616905  
H83      H      0.474720000000     0.772710000000     0.734130000000     0.0444671  
H84      H      0.515250000000     0.654680000000     0.742690000000     0.0829285  
H85      H      0.487710000000     0.769400000000     0.831690000000     0.0594891  
H86      H      0.426810000000     0.772560000000     0.758700000000     0.0605951  
H87      H      0.519230000000     0.689080000000     0.783130000000     0.0465053  
H88      H      0.395830000000     0.803810000000     0.787600000000     0.0383789  
H89      H      0.422390000000     0.881710000000     0.967240000000     0.0369621  
H90      H      0.562090000000     0.080250000000     0.042220000000     0.0357721  
H91      H      0.501780000000     0.929400000000     0.002810000000     0.044664   
H92      H      0.483200000000     0.032900000000     0.005210000000     0.0430704  
H93      H      0.532720000000     0.050830000000     0.010220000000     0.060323   
H94      H      0.453450000000     0.002760000000     0.973350000000     0.0434923  
H95      H      0.526330000000     0.988490000000     0.079610000000     0.0820862  
H96      H      0.452390000000     0.911510000000     0.998730000000     0.0593103  
H97      H      0.456210000000     0.973900000000     0.928730000000     0.0578504  
H98      H      0.531490000000     0.959550000000     0.034720000000     0.0463584  
H99      H      0.425680000000     0.943770000000     0.898030000000     0.034852   
H100     H      0.962680000000     0.822070000000     0.340350000000     0.0359674  
H101     H      0.028660000000     0.643440000000     0.168160000000     0.0370937  
H102     H      0.007760000000     0.782480000000     0.260150000000     0.0444237  
H103     H      0.983170000000     0.680600000000     0.250060000000     0.0442733  
H104     H      0.997410000000     0.673830000000     0.197220000000     0.0611642  
H105     H      0.952120000000     0.711080000000     0.280170000000     0.0438176  
H106     H      0.072690000000     0.710700000000     0.238890000000     0.0825035  
H107     H      0.993880000000     0.792140000000     0.310280000000     0.0589238  
H108     H      0.917710000000     0.748830000000     0.276980000000     0.0580825  
H109     H      0.039100000000     0.751750000000     0.230520000000     0.0464893  
H110     H      0.887300000000     0.778550000000     0.308090000000     0.0354523  
H111     H      0.178840000000     0.627460000000     0.038810000000     0.0392663  
H112     H      0.300980000000     0.834070000000     0.956940000000     0.035719   
H113     H      0.253660000000     0.682130000000     0.005540000000     0.0471151  
H114     H      0.221740000000     0.780150000000     0.982720000000     0.0431117  
H115     H      0.268940000000     0.804290000000     0.985750000000     0.0610368  
H116     H      0.190950000000     0.749970000000     0.013600000000     0.0439495  
H117     H      0.286180000000     0.734840000000     0.926420000000     0.0821502  
H118     H      0.207420000000     0.657110000000     0.005760000000     0.0604761  
H119     H      0.190770000000     0.728790000000     0.062820000000     0.0601002  
H120     H      0.284360000000     0.712250000000     0.974690000000     0.0471311  
H121     H      0.161890000000     0.698650000000     0.095040000000     0.0399843  
H122     H      0.351320000000     0.414160000000     0.287370000000     0.0399973  
H123     H      0.146580000000     0.549630000000     0.213740000000     0.0412617  
H124     H      0.300590000000     0.491950000000     0.257500000000     0.0472821  
H125     H      0.196670000000     0.469600000000     0.238230000000     0.0456637  
H126     H      0.176070000000     0.517370000000     0.242430000000     0.0636343  
H127     H      0.226040000000     0.436880000000     0.267610000000     0.0448154  
H128     H      0.246640000000     0.528590000000     0.180630000000     0.0831812  
H129     H      0.322190000000     0.444970000000     0.256030000000     0.0610864  
H130     H      0.249540000000     0.434100000000     0.315870000000     0.0594603  
H131     H      0.271240000000     0.524610000000     0.228100000000     0.0478346  
H132     H      0.279130000000     0.402970000000     0.346360000000     0.0365154  
H133     H      0.900860000000     0.313340000000     0.787130000000     0.0359753  
H134     H      0.090620000000     0.155860000000     0.719490000000     0.0354686  
H135     H      0.942130000000     0.234580000000     0.745230000000     0.0446281  
H136     H      0.048650000000     0.232900000000     0.763990000000     0.0432199  
H137     H      0.060170000000     0.184020000000     0.751750000000     0.0602937  
H138     H      0.017230000000     0.261500000000     0.795780000000     0.0437089  
H139     H      0.011320000000     0.212720000000     0.675940000000     0.0827461  
H140     H      0.931640000000     0.284120000000     0.755820000000     0.059151   
H141     H      0.979310000000     0.257150000000     0.833500000000     0.0579206  
H142     H      0.973530000000     0.205980000000     0.713460000000     0.0466521  
H143     H      0.948410000000     0.287000000000     0.864110000000     0.0351947  
H144     H      0.836000000000     0.314520000000     0.976000000000     0.0371298  
H145     H      0.668510000000     0.132980000000     0.037600000000     0.035449   
H146     H      0.802260000000     0.234590000000     0.021330000000     0.0444155  
H147     H      0.700900000000     0.213020000000     0.990370000000     0.043964   
H148     H      0.698840000000     0.162540000000     0.006540000000     0.0607727  
H149     H      0.730790000000     0.244030000000     0.959540000000     0.0453068  
H150     H      0.728750000000     0.207260000000     0.084010000000     0.0825145  
H151     H      0.806820000000     0.283170000000     0.006530000000     0.0597346  
H152     H      0.772350000000     0.244380000000     0.927060000000     0.0588192  
H153     H      0.772180000000     0.203940000000     0.052300000000     0.0460964  
H154     H      0.801270000000     0.276670000000     0.897220000000     0.0370771  
H155     H      0.637960000000     0.542720000000     0.717300000000     0.041723   
H156     H      0.848670000000     0.422220000000     0.801390000000     0.0352606  
H157     H      0.709060000000     0.515180000000     0.781410000000     0.0454083  
H158     H      0.777070000000     0.446490000000     0.735020000000     0.0434765  
H159     H      0.818580000000     0.451660000000     0.770000000000     0.0605687  
H160     H      0.746330000000     0.475960000000     0.703370000000     0.0439478  
H161     H      0.745190000000     0.435810000000     0.827060000000     0.0823816  
H162     H      0.667960000000     0.512540000000     0.748340000000     0.0606429  
H163     H      0.739720000000     0.524370000000     0.687570000000     0.0580387  
H164     H      0.739560000000     0.485510000000     0.812960000000     0.0463247  
H165     H      0.708820000000     0.553900000000     0.656650000000     0.035811   
H166     H      0.886350000000     0.424860000000     0.961970000000     0.0382366  
H167     H      0.054960000000     0.586370000000     0.046080000000     0.0351257  
H168     H      0.954610000000     0.453020000000     0.029500000000     0.0450829  
H169     H      0.029210000000     0.514690000000     0.982770000000     0.0434571  
H170     H      0.024640000000     0.556810000000     0.015040000000     0.0608584  
H171     H      0.998730000000     0.484620000000     0.951420000000     0.0438228  
H172     H      0.034690000000     0.488160000000     0.077030000000     0.0824612  
H173     H      0.915710000000     0.456180000000     0.992500000000     0.0594915  
H174     H      0.991330000000     0.434250000000     0.940350000000     0.0586745  
H175     H      0.984420000000     0.483700000000     0.060720000000     0.0461394  
H176     H      0.961230000000     0.403390000000     0.910000000000     0.0354437  
N1       N      0.916470000000     0.908900000000     0.439110000000    -0.188312   
N2       N      0.064430000000     0.052200000000     0.577160000000    -0.178071   
N3       N      0.888490000000     0.951100000000     0.423940000000    -0.0324909  
N4       N      0.666510000000     0.661140000000     0.577140000000    -0.188525   
N5       N      0.814190000000     0.800050000000     0.434030000000    -0.178902   
N6       N      0.627680000000     0.665190000000     0.539470000000    -0.0317955  
N7       N      0.167480000000     0.166990000000     0.574560000000    -0.187735   
N8       N      0.315350000000     0.304530000000     0.430300000000    -0.178779   
N9       N      0.127250000000     0.175240000000     0.539260000000    -0.0326122  
N10      N      0.422610000000     0.412200000000     0.427760000000    -0.188265   
N11      N      0.566260000000     0.552470000000     0.573920000000    -0.178727   
N12      N      0.424420000000     0.448220000000     0.388070000000    -0.0314456  
N13      N      0.817650000000     0.910270000000     0.329200000000    -0.188322   
N14      N      0.672620000000     0.046020000000     0.180290000000    -0.178281   
N15      N      0.785780000000     0.923300000000     0.371180000000    -0.0328053  
N16      N      0.423770000000     0.298240000000     0.326940000000    -0.188576   
N17      N      0.568170000000     0.158860000000     0.180860000000    -0.178531   
N18      N      0.460260000000     0.294140000000     0.366950000000    -0.0316617  
N19      N      0.170580000000     0.050900000000     0.676100000000    -0.188401   
N20      N      0.314110000000     0.911890000000     0.823530000000    -0.179492   
N21      N      0.207120000000     0.046590000000     0.636150000000    -0.0315779  
N22      N      0.568370000000     0.656300000000     0.690260000000    -0.188441   
N23      N      0.423670000000     0.804370000000     0.825930000000    -0.17867    
N24      N      0.547050000000     0.615540000000     0.716760000000    -0.0316947  
N25      N      0.561940000000     0.051480000000     0.079290000000    -0.188563   
N26      N      0.421830000000     0.910600000000     0.930400000000    -0.179651   
N27      N      0.555190000000     0.017130000000     0.120010000000    -0.0316758  
N28      N      0.068860000000     0.659390000000     0.186170000000    -0.188027   
N29      N      0.922780000000     0.802410000000     0.326480000000    -0.180074   
N30      N      0.111590000000     0.678380000000     0.212820000000    -0.0314951  
N31      N      0.312530000000     0.801990000000     0.925110000000    -0.188691   
N32      N      0.168400000000     0.660880000000     0.069340000000    -0.178026   
N33      N      0.324750000000     0.761040000000     0.893410000000    -0.0316684  
N34      N      0.179130000000     0.557920000000     0.180470000000    -0.187672   
N35      N      0.317380000000     0.406450000000     0.319170000000    -0.17867    
N36      N      0.221070000000     0.567170000000     0.147600000000    -0.0318088  
N37      N      0.068410000000     0.167180000000     0.679130000000    -0.18851    
N38      N      0.922450000000     0.302350000000     0.827840000000    -0.179657   
N39      N      0.042730000000     0.186680000000     0.635540000000    -0.0320337  
N40      N      0.680690000000     0.152860000000     0.078760000000    -0.188965   
N41      N      0.820670000000     0.297940000000     0.934430000000    -0.179096   
N42      N      0.700990000000     0.176130000000     0.123260000000    -0.0317718  
N43      N      0.814670000000     0.411780000000     0.832410000000    -0.189024   
N44      N      0.671230000000     0.550500000000     0.684780000000    -0.17867    
N45      N      0.773400000000     0.405940000000     0.866990000000    -0.0317727  
N46      N      0.062550000000     0.554680000000     0.079540000000    -0.188964   
N47      N      0.921670000000     0.411820000000     0.933860000000    -0.179259   
N48      N      0.064840000000     0.516390000000     0.116770000000    -0.0318062  
O1       O      0.859500000000     0.392190000000     0.843650000000    -0.248981   
O2       O      0.835260000000     0.316330000000     0.889300000000    -0.245149   
O3       O      0.877970000000     0.390680000000     0.921680000000    -0.242422   
O4       O      0.885030000000     0.334370000000     0.834410000000    -0.246758   
O5       O      0.908890000000     0.321150000000     0.873110000000    -0.248118   
O6       O      0.915580000000     0.379610000000     0.895790000000    -0.247327   
O7       O      0.822610000000     0.377440000000     0.868280000000    -0.227604   
O8       O      0.853630000000     0.334430000000     0.928890000000    -0.244292   
O9       O      0.166880000000     0.583060000000     0.138020000000    -0.224983   
O10      O      0.113070000000     0.644890000000     0.166380000000    -0.220448   
O11      O      0.096480000000     0.562740000000     0.116700000000    -0.227238   
O12      O      0.149480000000     0.617610000000     0.083420000000    -0.239823   
O13      O      0.140820000000     0.653440000000     0.111480000000    -0.240243   
O14      O      0.084540000000     0.597820000000     0.089060000000    -0.247899   
O15      O      0.135450000000     0.581230000000     0.173050000000    -0.239436   
O16      O      0.074350000000     0.624740000000     0.150280000000    -0.245706   
O17      O      0.395370000000     0.869890000000     0.921750000000    -0.244131   
O18      O      0.356440000000     0.886960000000     0.832350000000    -0.244291   
O19      O      0.335850000000     0.844930000000     0.918250000000    -0.244971   
O20      O      0.412380000000     0.829850000000     0.868180000000    -0.246577   
O21      O      0.381780000000     0.830710000000     0.832050000000    -0.240136   
O22      O      0.341090000000     0.813500000000     0.884380000000    -0.228868   
O23      O      0.396770000000     0.901070000000     0.887060000000    -0.250901   
O24      O      0.323160000000     0.885690000000     0.865880000000    -0.249161   
O25      O      0.632610000000     0.074910000000     0.173770000000    -0.23765    
O26      O      0.648150000000     0.115820000000     0.083970000000    -0.246302   
O27      O      0.609600000000     0.132180000000     0.173200000000    -0.23775    
O28      O      0.591960000000     0.059830000000     0.119790000000    -0.228793   
O29      O      0.588430000000     0.092500000000     0.086960000000    -0.243854   
O30      O      0.577350000000     0.132540000000     0.138660000000    -0.246578   
O31      O      0.662510000000     0.070780000000     0.137260000000    -0.244913   
O32      O      0.655450000000     0.142210000000     0.121910000000    -0.229506   
O33      O      0.380890000000     0.322810000000     0.334850000000    -0.246382   
O34      O      0.332890000000     0.347780000000     0.414410000000    -0.240781   
O35      O      0.360680000000     0.384480000000     0.331290000000    -0.239058   
O36      O      0.401050000000     0.397820000000     0.383700000000    -0.225938   
O37      O      0.394660000000     0.371790000000     0.422020000000    -0.244473   
O38      O      0.324400000000     0.378710000000     0.360770000000    -0.246088   
O39      O      0.415370000000     0.328800000000     0.366360000000    -0.226389   
O40      O      0.350460000000     0.310290000000     0.394090000000    -0.244878   
O41      O      0.572760000000     0.591030000000     0.604710000000    -0.239896   
O42      O      0.663260000000     0.578460000000     0.643500000000    -0.244758   
O43      O      0.579490000000     0.613130000000     0.668540000000    -0.221806   
O44      O      0.627490000000     0.630960000000     0.585510000000    -0.22764    
O45      O      0.658550000000     0.636270000000     0.620660000000    -0.243674   
O46      O      0.604490000000     0.649230000000     0.655230000000    -0.246768   
O47      O      0.609340000000     0.563480000000     0.597710000000    -0.247954   
O48      O      0.628110000000     0.573580000000     0.674530000000    -0.240571   
O49      O      0.878080000000     0.815590000000     0.345390000000    -0.250718   
O50      O      0.856230000000     0.825860000000     0.426460000000    -0.245016   
O51      O      0.858160000000     0.882050000000     0.336950000000    -0.246639   
O52      O      0.883990000000     0.900300000000     0.400740000000    -0.22402    
O53      O      0.902970000000     0.864430000000     0.422500000000    -0.241827   
O54      O      0.826490000000     0.884280000000     0.371930000000    -0.220554   
O55      O      0.915670000000     0.838630000000     0.360120000000    -0.249083   
O56      O      0.824490000000     0.825370000000     0.391470000000    -0.241675   
O57      O      0.073660000000     0.080540000000     0.617830000000    -0.243367   
O58      O      0.162280000000     0.081050000000     0.636320000000    -0.225172   
O59      O      0.078040000000     0.142730000000     0.635630000000    -0.222875   
O60      O      0.127950000000     0.137350000000     0.582190000000    -0.219729   
O61      O      0.159500000000     0.140620000000     0.617100000000    -0.242155   
O62      O      0.106540000000     0.135760000000     0.672580000000    -0.246462   
O63      O      0.106760000000     0.077720000000     0.584230000000    -0.237416   
O64      O      0.128260000000     0.076480000000     0.668520000000    -0.247482   
O65      O      0.892960000000     0.973680000000     0.407980000000    -0.0886592  
O66      O      0.861900000000     0.944290000000     0.431000000000    -0.0685668  
O67      O      0.623310000000     0.656560000000     0.512370000000    -0.0927023  
O68      O      0.605720000000     0.674750000000     0.554780000000    -0.0792979  
O69      O      0.121090000000     0.169090000000     0.511780000000    -0.0881211  
O70      O      0.106570000000     0.184280000000     0.556620000000    -0.0668325  
O71      O      0.443990000000     0.457520000000     0.369570000000    -0.0896959  
O72      O      0.397170000000     0.454450000000     0.383470000000    -0.0806669  
O73      O      0.759090000000     0.918520000000     0.379570000000    -0.090766   
O74      O      0.804180000000     0.933770000000     0.390250000000    -0.0635287  
O75      O      0.486870000000     0.302440000000     0.371840000000    -0.0914385  
O76      O      0.444780000000     0.284790000000     0.389100000000    -0.0785892  
O77      O      0.191940000000     0.037070000000     0.613850000000    -0.0798323  
O78      O      0.233690000000     0.055150000000     0.631520000000    -0.0928912  
O79      O      0.521750000000     0.603300000000     0.719020000000    -0.0915357  
O80      O      0.570090000000     0.602230000000     0.726230000000    -0.0790244  
O81      O      0.562890000000     0.991200000000     0.125890000000    -0.0939593  
O82      O      0.545100000000     0.032910000000     0.141380000000    -0.0797638  
O83      O      0.123920000000     0.655840000000     0.223720000000    -0.0761926  
O84      O      0.125430000000     0.702410000000     0.214020000000    -0.0915695  
O85      O      0.311290000000     0.746030000000     0.873420000000    -0.0929477  
O86      O      0.352940000000     0.758960000000     0.895670000000    -0.0810639  
O87      O      0.236520000000     0.553210000000     0.128270000000    -0.0906092  
O88      O      0.223120000000     0.594650000000     0.148440000000    -0.0769509  
O89      O      0.064320000000     0.195720000000     0.619370000000    -0.070429   
O90      O      0.016690000000     0.186100000000     0.624110000000    -0.089023   
O91      O      0.700560000000     0.201140000000     0.135410000000    -0.092474   
O92      O      0.710000000000     0.154650000000     0.138890000000    -0.0799351  
O93      O      0.747930000000     0.393840000000     0.866810000000    -0.0929491  
O94      O      0.784510000000     0.413960000000     0.892240000000    -0.0800267  
O95      O      0.076040000000     0.491130000000     0.118720000000    -0.0923004  
O96      O      0.055940000000     0.528940000000     0.140860000000    -0.0788605  


