data_structure

_audit_creation_method RASPA-1.0
_audit_creation_date 2023-5-22
_audit_author_name 'Poobodin Mano'

_cell_length_a    46.3364
_cell_length_b    47.5639
_cell_length_c    44.3101
_cell_angle_alpha 90
_cell_angle_beta  90
_cell_angle_gamma 90
_cell_volume      97656.8

_symmetry_cell_setting          triclinic
_symmetry_space_group_name_Hall 'P 1'
_symmetry_space_group_name_H-M  'P 1'
_symmetry_Int_Tables_number     1

_symmetry_equiv_pos_as_xyz 'x,y,z'

loop_
_atom_site_label
_atom_site_type_symbol
_atom_site_fract_x
_atom_site_fract_y
_atom_site_fract_z
_atom_site_charge
C1       C      0.898140000000     0.384000000000     0.928610000000     0.346344   
C2       C      0.827370000000     0.391470000000     0.854450000000     0.347033   
C3       C      0.899670000000     0.318430000000     0.848400000000     0.348588   
C4       C      0.826430000000     0.314350000000     0.922990000000     0.345541   
C5       C      0.081580000000     0.638660000000     0.168860000000     0.345506   
C6       C      0.150720000000     0.561460000000     0.172660000000     0.346091   
C7       C      0.080550000000     0.559530000000     0.102880000000     0.34577    
C8       C      0.151180000000     0.636360000000     0.099470000000     0.346705   
C9       C      0.323570000000     0.817030000000     0.919880000000     0.346339   
C10      C      0.324740000000     0.895210000000     0.852010000000     0.347205   
C11      C      0.394000000000     0.892080000000     0.924970000000     0.346542   
C12      C      0.393600000000     0.819680000000     0.847660000000     0.346475   
C13      C      0.650350000000     0.137800000000     0.103390000000     0.347211   
C14      C      0.578710000000     0.063550000000     0.101690000000     0.346828   
C15      C      0.652170000000     0.059630000000     0.171480000000     0.347895   
C16      C      0.582990000000     0.134260000000     0.178500000000     0.34663    
C17      C      0.328690000000     0.388120000000     0.354370000000     0.345671   
C18      C      0.405260000000     0.314060000000     0.353210000000     0.346957   
C19      C      0.406610000000     0.389720000000     0.419270000000     0.344866   
C20      C      0.331510000000     0.314340000000     0.420720000000     0.34609    
C21      C      0.649160000000     0.568740000000     0.677200000000     0.347766   
C22      C      0.572460000000     0.638050000000     0.676330000000     0.349281   
C23      C      0.649650000000     0.640810000000     0.606660000000     0.346376   
C24      C      0.576270000000     0.569950000000     0.602100000000     0.345927   
C25      C      0.900770000000     0.813680000000     0.345390000000     0.344958   
C26      C      0.832280000000     0.883280000000     0.347620000000     0.348247   
C27      C      0.829800000000     0.811390000000     0.424000000000     0.349278   
C28      C      0.902870000000     0.881280000000     0.424430000000     0.344909   
C29      C      0.076000000000     0.140890000000     0.669280000000     0.346372   
C30      C      0.150780000000     0.073070000000     0.671060000000     0.345666   
C31      C      0.076060000000     0.066650000000     0.597630000000     0.348586   
C32      C      0.148030000000     0.137710000000     0.592720000000     0.348059   
C33      C      0.962770000000     0.907120000000     0.472980000000    -0.0982349  
C34      C      0.033150000000     0.057440000000     0.569890000000     0.0726325  
C35      C      0.068360000000     0.021680000000     0.575670000000     0.0727727  
C36      C      0.015790000000     0.039370000000     0.552910000000    -0.0883975  
C37      C      0.976560000000     0.991940000000     0.532420000000    -0.0341805  
C38      C      0.959570000000     0.973490000000     0.515460000000    -0.0330694  
C39      C      0.006750000000     0.992210000000     0.529090000000    -0.00396403 
C40      C      0.051520000000     0.003040000000     0.558870000000    -0.0885245  
C41      C      0.972390000000     0.954800000000     0.494870000000    -0.0062945  
C42      C      0.928840000000     0.944140000000     0.463460000000    -0.0909896  
C43      C      0.002540000000     0.955070000000     0.491500000000    -0.0330157  
C44      C      0.912400000000     0.925530000000     0.446300000000     0.0714665  
C45      C      0.945870000000     0.888580000000     0.455710000000     0.0977321  
C46      C      0.019520000000     0.973580000000     0.508360000000    -0.0341489  
C47      C      0.024880000000     0.011770000000     0.547180000000     0.0499801  
C48      C      0.954390000000     0.935090000000     0.476910000000     0.0544526  
C49      C      0.688810000000     0.703340000000     0.577320000000    -0.0983363  
C50      C      0.809200000000     0.766720000000     0.434890000000     0.0725537  
C51      C      0.798640000000     0.805830000000     0.466200000000     0.0726434  
C52      C      0.791660000000     0.749430000000     0.452590000000    -0.0887155  
C53      C      0.766670000000     0.715350000000     0.504680000000    -0.0342206  
C54      C      0.748930000000     0.698650000000     0.522860000000    -0.0329572  
C55      C      0.758160000000     0.742680000000     0.496520000000    -0.00414003 
C56      C      0.780840000000     0.789180000000     0.484290000000    -0.0888178  
C57      C      0.722230000000     0.708880000000     0.533220000000    -0.00623412 
C58      C      0.700200000000     0.662620000000     0.547710000000    -0.0908612  
C59      C      0.713620000000     0.736120000000     0.524770000000    -0.0330217  
C60      C      0.682350000000     0.646590000000     0.566300000000     0.0715112  
C61      C      0.670890000000     0.686890000000     0.595830000000     0.0983027  
C62      C      0.731390000000     0.752830000000     0.506700000000    -0.0342068  
C63      C      0.777140000000     0.760630000000     0.477580000000     0.0501083  
C64      C      0.703490000000     0.691360000000     0.552960000000     0.0544257  
C65      C      0.188560000000     0.165180000000     0.526470000000    -0.0982451  
C66      C      0.309470000000     0.301330000000     0.467090000000     0.0726788  
C67      C      0.300650000000     0.274420000000     0.423000000000     0.0724251  
C68      C      0.291590000000     0.283670000000     0.483930000000    -0.088467   
C69      C      0.266240000000     0.233670000000     0.517100000000    -0.0342695  
C70      C      0.248050000000     0.216200000000     0.533860000000    -0.0329567  
C71      C      0.258710000000     0.241890000000     0.487650000000    -0.00403655 
C72      C      0.282600000000     0.256340000000     0.439170000000    -0.0885411  
C73      C      0.221900000000     0.206520000000     0.521580000000    -0.00626707 
C74      C      0.197510000000     0.193740000000     0.570070000000    -0.0911013  
C75      C      0.214440000000     0.214590000000     0.492060000000    -0.0330443  
C76      C      0.179230000000     0.176470000000     0.586770000000     0.0721509  
C77      C      0.170190000000     0.147930000000     0.543660000000     0.0984024  
C78      C      0.232640000000     0.232070000000     0.475300000000    -0.0340898  
C79      C      0.277870000000     0.260830000000     0.470030000000     0.049956   
C80      C      0.202410000000     0.188230000000     0.539600000000     0.05463    
C81      C      0.459140000000     0.445780000000     0.439590000000    -0.0980112  
C82      C      0.540780000000     0.534300000000     0.596290000000     0.0726193  
C83      C      0.562210000000     0.554940000000     0.553030000000     0.0723616  
C84      C      0.524240000000     0.516560000000     0.578100000000    -0.0888388  
C85      C      0.506450000000     0.470440000000     0.534450000000    -0.0343146  
C86      C      0.490100000000     0.452560000000     0.516210000000    -0.032904   
C87      C      0.509540000000     0.499010000000     0.527030000000    -0.00412003 
C88      C      0.545850000000     0.537620000000     0.534150000000    -0.0885978  
C89      C      0.476310000000     0.462830000000     0.490170000000    -0.00619093 
C90      C      0.440730000000     0.423560000000     0.484190000000    -0.0908046  
C91      C      0.479510000000     0.491400000000     0.482690000000    -0.0329453  
C92      C      0.424100000000     0.405910000000     0.466110000000     0.0714157  
C93      C      0.442160000000     0.427830000000     0.421670000000     0.0978852  
C94      C      0.496000000000     0.509270000000     0.500870000000    -0.0342735  
C95      C      0.526720000000     0.518010000000     0.546640000000     0.050027   
C96      C      0.458490000000     0.443830000000     0.471060000000     0.054301   
C97      C      0.809600000000     0.936380000000     0.290730000000    -0.0983945  
C98      C      0.657620000000     0.023210000000     0.207820000000     0.0727992  
C99      C      0.698880000000     0.042680000000     0.184050000000     0.0728984  
C100     C      0.675060000000     0.005360000000     0.225000000000    -0.0886154  
C101     C      0.716800000000     0.959750000000     0.245610000000    -0.034252   
C102     C      0.734760000000     0.942550000000     0.262980000000    -0.0329018  
C103     C      0.724100000000     0.988010000000     0.240320000000    -0.00406006 
C104     C      0.716950000000     0.025210000000     0.200900000000    -0.0887545  
C105     C      0.760420000000     0.953220000000     0.275480000000    -0.00631244 
C106     C      0.768170000000     0.915970000000     0.314640000000    -0.0909867  
C107     C      0.767630000000     0.981520000000     0.270280000000    -0.0329138  
C108     C      0.786450000000     0.899140000000     0.331870000000     0.0718203  
C109     C      0.827740000000     0.919250000000     0.308280000000     0.0985966  
C110     C      0.749710000000     0.998700000000     0.252890000000    -0.0342448  
C111     C      0.705120000000     0.006340000000     0.221790000000     0.0501753  
C112     C      0.779630000000     0.934940000000     0.293860000000     0.0546319  
C113     C      0.553330000000     0.170620000000     0.246070000000    -0.0980826  
C114     C      0.418850000000     0.293550000000     0.306430000000     0.0727507  
C115     C      0.444320000000     0.281640000000     0.351060000000     0.0723529  
C116     C      0.436630000000     0.275970000000     0.289400000000    -0.0888506  
C117     C      0.488610000000     0.250890000000     0.257480000000    -0.0343589  
C118     C      0.506310000000     0.233210000000     0.240420000000    -0.0328485  
C119     C      0.477890000000     0.242110000000     0.285610000000    -0.00408859 
C120     C      0.462410000000     0.263710000000     0.334720000000    -0.0887024  
C121     C      0.513610000000     0.206260000000     0.251010000000    -0.00627296 
C122     C      0.528710000000     0.185820000000     0.201350000000    -0.091039   
C123     C      0.502970000000     0.197540000000     0.279230000000    -0.0328955  
C124     C      0.546180000000     0.168040000000     0.184310000000     0.0718024  
C125     C      0.570730000000     0.152730000000     0.228540000000     0.0981306  
C126     C      0.485370000000     0.215290000000     0.296370000000    -0.0342889  
C127     C      0.458750000000     0.260810000000     0.303490000000     0.0500985  
C128     C      0.532110000000     0.187300000000     0.232580000000     0.0544903  
C129     C      0.216210000000     0.042140000000     0.706650000000    -0.0981496  
C130     C      0.278630000000     0.912850000000     0.838110000000     0.0728378  
C131     C      0.320840000000     0.932110000000     0.816000000000     0.0727648  
C132     C      0.261310000000     0.930820000000     0.821000000000    -0.0886051  
C133     C      0.230610000000     0.958580000000     0.768300000000    -0.0341897  
C134     C      0.213620000000     0.976220000000     0.750430000000    -0.0328515  
C135     C      0.255850000000     0.968750000000     0.782090000000    -0.00399092 
C136     C      0.304160000000     0.950450000000     0.798620000000    -0.0885236  
C137     C      0.221420000000     0.004480000000     0.745960000000    -0.00626321 
C138     C      0.173400000000     0.021850000000     0.727860000000    -0.0911022  
C139     C      0.246630000000     0.014680000000     0.759850000000    -0.0329471  
C140     C      0.156800000000     0.038980000000     0.709180000000     0.0717697  
C141     C      0.199140000000     0.059340000000     0.688010000000     0.0981443  
C142     C      0.263670000000     0.997000000000     0.777670000000    -0.0343543  
C143     C      0.274010000000     0.949860000000     0.800870000000     0.0501023  
C144     C      0.203440000000     0.023130000000     0.726660000000     0.0544705  
C145     C      0.425730000000     0.783290000000     0.781370000000    -0.0981447  
C146     C      0.555890000000     0.654890000000     0.723820000000     0.0727489  
C147     C      0.534550000000     0.671650000000     0.678620000000     0.0729752  
C148     C      0.538000000000     0.672320000000     0.740970000000    -0.0885895  
C149     C      0.486360000000     0.700100000000     0.771330000000    -0.0342725  
C150     C      0.468770000000     0.718240000000     0.788010000000    -0.0329896  
C151     C      0.499380000000     0.709220000000     0.744400000000    -0.00406791 
C152     C      0.516410000000     0.689390000000     0.695060000000    -0.0888179  
C153     C      0.463850000000     0.745940000000     0.778160000000    -0.00619945 
C154     C      0.446550000000     0.765910000000     0.827270000000    -0.0909853  
C155     C      0.476970000000     0.755070000000     0.751280000000    -0.0329951  
C156     C      0.428990000000     0.784250000000     0.843530000000     0.071496   
C157     C      0.408180000000     0.801670000000     0.798110000000     0.0980043  
C158     C      0.494490000000     0.736920000000     0.734580000000    -0.0341496  
C159     C      0.518090000000     0.690000000000     0.726620000000     0.050164   
C160     C      0.445130000000     0.765280000000     0.795850000000     0.0544301  
C161     C      0.418210000000     0.944070000000     0.982390000000    -0.0983382  
C162     C      0.572300000000     0.029160000000     0.063290000000     0.072394   
C163     C      0.531570000000     0.048340000000     0.088290000000     0.07245    
C164     C      0.554430000000     0.012180000000     0.045580000000    -0.0885791  
C165     C      0.512300000000     0.967350000000     0.024290000000    -0.0340992  
C166     C      0.493890000000     0.950460000000     0.007080000000    -0.0331747  
C167     C      0.505010000000     0.995420000000     0.030700000000    -0.00421632 
C168     C      0.513080000000     0.031690000000     0.070970000000    -0.0885699  
C169     C      0.467740000000     0.961240000000     0.995900000000    -0.00607847 
C170     C      0.458880000000     0.925160000000     0.955770000000    -0.0909863  
C171     C      0.460510000000     0.989340000000     0.002190000000    -0.0333335  
C172     C      0.440150000000     0.908540000000     0.938840000000     0.0714872  
C173     C      0.399620000000     0.927110000000     0.965150000000     0.0980548  
C174     C      0.478920000000     0.006230000000     0.019370000000    -0.0340576  
C175     C      0.524410000000     0.013310000000     0.049280000000     0.0499265  
C176     C      0.448030000000     0.943250000000     0.977780000000     0.0543451  
C177     C      0.928600000000     0.775320000000     0.278260000000    -0.0982649  
C178     C      0.071630000000     0.663760000000     0.214070000000     0.072553   
C179     C      0.040450000000     0.668420000000     0.171930000000     0.072335   
C180     C      0.054240000000     0.681840000000     0.230980000000    -0.0886723  
C181     C      0.021730000000     0.732540000000     0.255310000000    -0.0344056  
C182     C      0.003660000000     0.749680000000     0.272620000000    -0.0328961  
C183     C      0.010060000000     0.711930000000     0.236120000000    -0.00404108 
C184     C      0.022520000000     0.686500000000     0.188230000000    -0.0887166  
C185     C      0.973510000000     0.746570000000     0.271180000000    -0.00630742 
C186     C      0.961460000000     0.770740000000     0.319790000000    -0.0908641  
C187     C      0.961860000000     0.726050000000     0.251860000000    -0.0329038  
C188     C      0.943130000000     0.787280000000     0.337270000000     0.0714937  
C189     C      0.910340000000     0.791990000000     0.296220000000     0.0982836  
C190     C      0.979910000000     0.708960000000     0.234510000000    -0.0342383  
C191     C      0.029240000000     0.693310000000     0.218170000000     0.0500203  
C192     C      0.954290000000     0.764480000000     0.289980000000     0.05452    
C193     C      0.267380000000     0.764970000000     0.941610000000    -0.0982167  
C194     C      0.190250000000     0.668510000000     0.095050000000     0.072399   
C195     C      0.162400000000     0.656820000000     0.051940000000     0.0725115  
C196     C      0.207620000000     0.686290000000     0.077740000000    -0.0887557  
C197     C      0.229430000000     0.734430000000     0.038620000000    -0.0341161  
C198     C      0.246460000000     0.752060000000     0.020730000000    -0.0330963  
C199     C      0.220730000000     0.707930000000     0.027920000000    -0.00420638 
C200     C      0.179400000000     0.674330000000     0.033950000000    -0.0886932  
C201     C      0.255220000000     0.743560000000     0.991740000000    -0.00608278 
C202     C      0.295390000000     0.778270000000     0.984810000000    -0.0907655  
C203     C      0.246690000000     0.716960000000     0.981160000000    -0.0331581  
C204     C      0.311660000000     0.796050000000     0.966490000000     0.0714953  
C205     C      0.284010000000     0.782970000000     0.923450000000     0.0980417  
C206     C      0.229610000000     0.699370000000     0.999020000000    -0.0341182  
C207     C      0.202360000000     0.689310000000     0.046770000000     0.0500501  
C208     C      0.272950000000     0.762480000000     0.972490000000     0.0543801  
C209     C      0.265680000000     0.431710000000     0.331540000000    -0.098189   
C210     C      0.193400000000     0.534620000000     0.180110000000     0.0724809  
C211     C      0.157730000000     0.536300000000     0.218450000000     0.0722917  
C212     C      0.210660000000     0.517230000000     0.197960000000    -0.088788   
C213     C      0.234260000000     0.467920000000     0.233940000000    -0.0342768  
C214     C      0.251730000000     0.451020000000     0.252130000000    -0.032997   
C215     C      0.219600000000     0.491120000000     0.246230000000    -0.00415371 
C216     C      0.174500000000     0.519020000000     0.236950000000    -0.0886711  
C217     C      0.255020000000     0.456960000000     0.283030000000    -0.006202   
C218     C      0.300380000000     0.429470000000     0.291460000000    -0.0909999  
C219     C      0.240260000000     0.480100000000     0.295350000000    -0.0330546  
C220     C      0.317860000000     0.412670000000     0.309580000000     0.0717087  
C221     C      0.283610000000     0.414760000000     0.349560000000     0.098041   
C222     C      0.222710000000     0.496960000000     0.277160000000    -0.0341557  
C223     C      0.201330000000     0.509290000000     0.226800000000     0.0500298  
C224     C      0.273940000000     0.439160000000     0.302270000000     0.0544558  
C225     C      0.940570000000     0.291210000000     0.782330000000    -0.0983164  
C226     C      0.054130000000     0.151830000000     0.716390000000     0.0721989  
C227     C      0.046890000000     0.181780000000     0.674290000000     0.0725085  
C228     C      0.036880000000     0.169160000000     0.734370000000    -0.0885214  
C229     C      0.013350000000     0.218240000000     0.770770000000    -0.0342263  
C230     C      0.996020000000     0.235930000000     0.788280000000    -0.0330293  
C231     C      0.005810000000     0.212030000000     0.740750000000    -0.00399174 
C232     C      0.029530000000     0.199550000000     0.691600000000    -0.0885687  
C233     C      0.970780000000     0.247840000000     0.776190000000    -0.00632375 
C234     C      0.946570000000     0.260590000000     0.824860000000    -0.0912022  
C235     C      0.963200000000     0.241550000000     0.746220000000    -0.0329662  
C236     C      0.929080000000     0.278410000000     0.841850000000     0.0717461  
C237     C      0.923020000000     0.308990000000     0.799800000000     0.098189   
C238     C      0.980500000000     0.223860000000     0.728710000000    -0.0342796  
C239     C      0.024300000000     0.193360000000     0.722030000000     0.0498783  
C240     C      0.952410000000     0.266790000000     0.794720000000     0.0545363  
C241     C      0.703000000000     0.192900000000     0.080730000000    -0.0984695  
C242     C      0.790410000000     0.278800000000     0.926150000000     0.0722709  
C243     C      0.810880000000     0.297650000000     0.970820000000     0.0724189  
C244     C      0.772800000000     0.260960000000     0.943170000000    -0.0884251  
C245     C      0.726800000000     0.237780000000     0.985510000000    -0.0340406  
C246     C      0.709310000000     0.220650000000     0.003490000000    -0.0332098  
C247     C      0.755790000000     0.242670000000     0.993370000000    -0.00402797 
C248     C      0.793600000000     0.280150000000     0.988500000000    -0.0885     
C249     C      0.720390000000     0.208060000000     0.029750000000    -0.00622648 
C250     C      0.682590000000     0.170950000000     0.036930000000    -0.0909087  
C251     C      0.749440000000     0.212680000000     0.037400000000    -0.0331494  
C252     C      0.665680000000     0.154160000000     0.055720000000     0.0713339  
C253     C      0.685720000000     0.175910000000     0.099340000000     0.0982781  
C254     C      0.766930000000     0.229750000000     0.019420000000    -0.0342346  
C255     C      0.774270000000     0.261460000000     0.974760000000     0.049862   
C256     C      0.701720000000     0.190390000000     0.049350000000     0.0544458  
C257     C      0.799230000000     0.456290000000     0.817890000000    -0.0981774  
C258     C      0.660860000000     0.523660000000     0.696830000000     0.0724878  
C259     C      0.689810000000     0.563060000000     0.709410000000     0.0725567  
C260     C      0.678240000000     0.506160000000     0.714440000000    -0.0887903  
C261     C      0.708470000000     0.478400000000     0.767540000000    -0.0342388  
C262     C      0.726030000000     0.461100000000     0.785230000000    -0.0329898  
C263     C      0.720680000000     0.499000000000     0.748720000000    -0.00407896 
C264     C      0.707720000000     0.546140000000     0.727130000000    -0.0886792  
C265     C      0.756230000000     0.463950000000     0.784450000000    -0.0061956  
C266     C      0.768640000000     0.416990000000     0.806620000000    -0.0908577  
C267     C      0.768420000000     0.484560000000     0.765590000000    -0.0329098  
C268     C      0.786460000000     0.399920000000     0.824110000000     0.0715902  
C269     C      0.816990000000     0.438770000000     0.835430000000     0.0983536  
C270     C      0.750850000000     0.501920000000     0.747980000000    -0.0342504  
C271     C      0.701990000000     0.517330000000     0.729870000000     0.0500562  
C272     C      0.774950000000     0.445490000000     0.803200000000     0.0544685  
C273     C      0.923200000000     0.430390000000     0.990820000000    -0.0982008  
C274     C      0.073830000000     0.527790000000     0.062000000000     0.0723282  
C275     C      0.035290000000     0.536960000000     0.095800000000     0.0724215  
C276     C      0.056320000000     0.509730000000     0.045170000000    -0.0886103  
C277     C      0.018370000000     0.461080000000     0.024300000000    -0.0343246  
C278     C      0.000210000000     0.443760000000     0.007280000000    -0.0329599  
C279     C      0.008340000000     0.486900000000     0.035620000000    -0.00406739 
C280     C      0.017160000000     0.519150000000     0.079430000000    -0.088783   
C281     C      0.971630000000     0.451910000000     0.001120000000    -0.00630872 
C282     C      0.962520000000     0.419260000000     0.957720000000    -0.0908333  
C283     C      0.961680000000     0.477810000000     0.012360000000    -0.0329452  
C284     C      0.943900000000     0.402640000000     0.940610000000     0.0718702  
C285     C      0.904730000000     0.413560000000     0.973320000000     0.098493   
C286     C      0.979790000000     0.495060000000     0.029450000000    -0.0342524  
C287     C      0.027550000000     0.505380000000     0.053690000000     0.049984   
C288     C      0.952230000000     0.433590000000     0.982990000000     0.054551   
Cd1      Cd     0.862660000000     0.351490000000     0.887700000000     0.509859   
Cd2      Cd     0.116380000000     0.598830000000     0.135750000000     0.509042   
Cd3      Cd     0.359430000000     0.856070000000     0.886300000000     0.51058    
Cd4      Cd     0.616010000000     0.098420000000     0.138340000000     0.510048   
Cd5      Cd     0.368390000000     0.351790000000     0.386860000000     0.509767   
Cd6      Cd     0.611880000000     0.604220000000     0.641030000000     0.509307   
Cd7      Cd     0.865880000000     0.846870000000     0.386470000000     0.509914   
Cd8      Cd     0.111850000000     0.104580000000     0.632540000000     0.509523   
H1       H      0.088790000000     0.014060000000     0.584350000000     0.0335243  
H2       H      0.892860000000     0.933940000000     0.436290000000     0.0349048  
H3       H      0.042640000000     0.973550000000     0.504820000000     0.0412323  
H4       H      0.936420000000     0.973540000000     0.518830000000     0.0409914  
H5       H      0.921700000000     0.965730000000     0.465730000000     0.0566932  
H6       H      0.966040000000     0.005690000000     0.548500000000     0.0410629  
H7       H      0.982430000000     0.899730000000     0.483720000000     0.0594614  
H8       H      0.059230000000     0.981790000000     0.555420000000     0.0557968  
H9       H      0.995550000000     0.047170000000     0.543990000000     0.0557363  
H10      H      0.013020000000     0.941230000000     0.475470000000     0.0411118  
H11      H      0.025370000000     0.078650000000     0.573720000000     0.0333291  
H12      H      0.800970000000     0.827810000000     0.472200000000     0.0332684  
H13      H      0.680470000000     0.624440000000     0.560830000000     0.0348645  
H14      H      0.723990000000     0.773620000000     0.500380000000     0.0412947  
H15      H      0.756400000000     0.677920000000     0.529270000000     0.0407465  
H16      H      0.710990000000     0.652500000000     0.528940000000     0.0564156  
H17      H      0.787330000000     0.707050000000     0.497500000000     0.0412845  
H18      H      0.691750000000     0.725530000000     0.582160000000     0.0594558  
H19      H      0.770310000000     0.798600000000     0.503630000000     0.0559913  
H20      H      0.789160000000     0.727530000000     0.446430000000     0.0560284  
H21      H      0.692960000000     0.744470000000     0.531870000000     0.0409376  
H22      H      0.819940000000     0.757300000000     0.415640000000     0.0333048  
H23      H      0.303820000000     0.270180000000     0.399180000000     0.033099   
H24      H      0.176330000000     0.181970000000     0.610330000000     0.0350597  
H25      H      0.226000000000     0.238330000000     0.452840000000     0.041238   
H26      H      0.254650000000     0.210010000000     0.556350000000     0.0409633  
H27      H      0.207500000000     0.211620000000     0.581050000000     0.056647   
H28      H      0.286380000000     0.240470000000     0.527110000000     0.0411967  
H29      H      0.192450000000     0.160470000000     0.502840000000     0.0595744  
H30      H      0.272710000000     0.238750000000     0.427590000000     0.055797   
H31      H      0.288240000000     0.288170000000     0.507640000000     0.0559348  
H32      H      0.194260000000     0.207820000000     0.482100000000     0.0410104  
H33      H      0.319580000000     0.318820000000     0.478700000000     0.0343741  
H34      H      0.576970000000     0.569670000000     0.542520000000     0.0334348  
H35      H      0.410610000000     0.390770000000     0.477770000000     0.0355552  
H36      H      0.497690000000     0.531260000000     0.494760000000     0.041312   
H37      H      0.488530000000     0.430570000000     0.522360000000     0.0407176  
H38      H      0.439240000000     0.421520000000     0.508480000000     0.0564843  
H39      H      0.517000000000     0.461810000000     0.554200000000     0.0413518  
H40      H      0.473330000000     0.461050000000     0.429020000000     0.0593208  
H41      H      0.548580000000     0.539260000000     0.509930000000     0.0559538  
H42      H      0.509420000000     0.501950000000     0.588660000000     0.0559937  
H43      H      0.468840000000     0.500120000000     0.463060000000     0.0408702  
H44      H      0.538230000000     0.532480000000     0.620530000000     0.0336842  
H45      H      0.708920000000     0.057020000000     0.168180000000     0.0337186  
H46      H      0.776170000000     0.885000000000     0.347780000000     0.0346856  
H47      H      0.755700000000     0.020500000000     0.249670000000     0.0415259  
H48      H      0.728780000000     0.920740000000     0.266200000000     0.0408628  
H49      H      0.745070000000     0.914360000000     0.318010000000     0.0565536  
H50      H      0.697410000000     0.950790000000     0.235920000000     0.0411324  
H51      H      0.818790000000     0.950650000000     0.274190000000     0.059512   
H52      H      0.740050000000     0.026360000000     0.197380000000     0.0560574  
H53      H      0.665030000000     0.991280000000     0.241090000000     0.0560063  
H54      H      0.786970000000     0.990540000000     0.280020000000     0.0409687  
H55      H      0.634470000000     0.022010000000     0.211170000000     0.033585   
H56      H      0.447950000000     0.283480000000     0.375150000000     0.0329465  
H57      H      0.542290000000     0.167780000000     0.160170000000     0.0348084  
H58      H      0.477140000000     0.207790000000     0.317790000000     0.0413028  
H59      H      0.514540000000     0.240810000000     0.219040000000     0.0407395  
H60      H      0.512290000000     0.198080000000     0.189970000000     0.0564056  
H61      H      0.483600000000     0.271610000000     0.248800000000     0.0414471  
H62      H      0.556610000000     0.171960000000     0.270290000000     0.0594199  
H63      H      0.479430000000     0.252550000000     0.346430000000     0.0559958  
H64      H      0.432820000000     0.274040000000     0.265370000000     0.0560878  
H65      H      0.507800000000     0.176760000000     0.287870000000     0.0408627  
H66      H      0.401940000000     0.304880000000     0.294650000000     0.0341569  
H67      H      0.344090000000     0.933050000000     0.813420000000     0.0336557  
H68      H      0.133570000000     0.036880000000     0.711200000000     0.0351648  
H69      H      0.282780000000     0.005570000000     0.788330000000     0.04118    
H70      H      0.194610000000     0.967560000000     0.739660000000     0.0409676  
H71      H      0.162590000000     0.007750000000     0.743370000000     0.0565493  
H72      H      0.224230000000     0.936800000000     0.770880000000     0.0415412  
H73      H      0.239580000000     0.043170000000     0.705230000000     0.0593884  
H74      H      0.314850000000     0.964650000000     0.783110000000     0.0560128  
H75      H      0.238100000000     0.929920000000     0.823740000000     0.0561122  
H76      H      0.253030000000     0.036450000000     0.757260000000     0.040677   
H77      H      0.267950000000     0.898410000000     0.853400000000     0.0341166  
H78      H      0.532630000000     0.671870000000     0.654230000000     0.0335216  
H79      H      0.431270000000     0.783800000000     0.867890000000     0.0347403  
H80      H      0.504590000000     0.744750000000     0.714200000000     0.0414554  
H81      H      0.458680000000     0.710420000000     0.808390000000     0.0407969  
H82      H      0.461510000000     0.752550000000     0.839400000000     0.0564987  
H83      H      0.489390000000     0.678780000000     0.779290000000     0.0411798  
H84      H      0.424020000000     0.782660000000     0.756940000000     0.0594712  
H85      H      0.501030000000     0.702400000000     0.683070000000     0.0560364  
H86      H      0.540190000000     0.672330000000     0.765310000000     0.0560033  
H87      H      0.474040000000     0.776410000000     0.743320000000     0.0410206  
H88      H      0.571220000000     0.641740000000     0.735750000000     0.033375   
H89      H      0.521900000000     0.062200000000     0.104880000000     0.0335107  
H90      H      0.449970000000     0.895050000000     0.921990000000     0.0348505  
H91      H      0.472870000000     0.027890000000     0.023460000000     0.0410759  
H92      H      0.499910000000     0.928790000000     0.002980000000     0.0409317  
H93      H      0.481830000000     0.924090000000     0.951250000000     0.0565825  
H94      H      0.532020000000     0.958240000000     0.033040000000     0.0410728  
H95      H      0.409520000000     0.957730000000     0.999790000000     0.0594717  
H96      H      0.490040000000     0.032970000000     0.074890000000     0.0557748  
H97      H      0.564110000000     0.998540000000     0.028840000000     0.0557874  
H98      H      0.440760000000     0.998430000000     0.993480000000     0.0409561  
H99      H      0.595400000000     0.027730000000     0.059670000000     0.0333448  
H100     H      0.034450000000     0.663610000000     0.148850000000     0.0334737  
H101     H      0.949860000000     0.791170000000     0.360340000000     0.0356438  
H102     H      0.970260000000     0.692990000000     0.220300000000     0.0413602  
H103     H      0.013330000000     0.765580000000     0.286900000000     0.0407902  
H104     H      0.981000000000     0.762510000000     0.329900000000     0.0565779  
H105     H      0.044840000000     0.735620000000     0.256730000000     0.0411478  
H106     H      0.923040000000     0.771080000000     0.254900000000     0.0594743  
H107     H      0.003600000000     0.695200000000     0.177330000000     0.0558775  
H108     H      0.060080000000     0.686320000000     0.254160000000     0.0559422  
H109     H      0.938750000000     0.722800000000     0.250570000000     0.0409447  
H110     H      0.090640000000     0.655100000000     0.224920000000     0.0338078  
H111     H      0.144810000000     0.645620000000     0.041150000000     0.0337534  
H112     H      0.328850000000     0.807690000000     0.977460000000     0.0349835  
H113     H      0.223670000000     0.678890000000     0.990330000000     0.0413419  
H114     H      0.252300000000     0.772570000000     0.029400000000     0.0410065  
H115     H      0.300690000000     0.776720000000     0.008570000000     0.0564733  
H116     H      0.222630000000     0.741790000000     0.060640000000     0.0411587  
H117     H      0.249660000000     0.753150000000     0.931800000000     0.0594079  
H118     H      0.174340000000     0.676340000000     0.010180000000     0.0559952  
H119     H      0.225330000000     0.697250000000     0.088500000000     0.0559489  
H120     H      0.253480000000     0.709560000000     0.959170000000     0.0408632  
H121     H      0.195140000000     0.666620000000     0.118900000000     0.0333432  
H122     H      0.137090000000     0.543370000000     0.227120000000     0.0337186  
H123     H      0.338160000000     0.405890000000     0.299790000000     0.0356768  
H124     H      0.212020000000     0.514920000000     0.287210000000     0.0413843  
H125     H      0.262410000000     0.433080000000     0.242040000000     0.0408604  
H126     H      0.307840000000     0.435080000000     0.269090000000     0.056642   
H127     H      0.231950000000     0.462620000000     0.210290000000     0.041142   
H128     H      0.244970000000     0.438800000000     0.340110000000     0.0594075  
H129     H      0.166320000000     0.513100000000     0.258950000000     0.0559573  
H130     H      0.231400000000     0.510430000000     0.189370000000     0.0559766  
H131     H      0.242660000000     0.485520000000     0.318950000000     0.0409248  
H132     H      0.201490000000     0.540440000000     0.158010000000     0.0334477  
H133     H      0.050450000000     0.187370000000     0.650860000000     0.0336725  
H134     H      0.925210000000     0.272270000000     0.865080000000     0.0344139  
H135     H      0.973800000000     0.219140000000     0.705850000000     0.04122    
H136     H      0.002680000000     0.240660000000     0.811160000000     0.0408442  
H137     H      0.955100000000     0.241740000000     0.835280000000     0.0565543  
H138     H      0.032920000000     0.209810000000     0.780600000000     0.0411091  
H139     H      0.945400000000     0.296560000000     0.759040000000     0.0595388  
H140     H      0.020570000000     0.218240000000     0.681240000000     0.0558697  
H141     H      0.033140000000     0.163370000000     0.757680000000     0.0557644  
H142     H      0.943630000000     0.250010000000     0.736380000000     0.0410005  
H143     H      0.063380000000     0.133250000000     0.726770000000     0.0333688  
H144     H      0.825480000000     0.311850000000     0.982390000000     0.033904   
H145     H      0.651520000000     0.139200000000     0.044680000000     0.034744   
H146     H      0.789290000000     0.232620000000     0.025820000000     0.041156   
H147     H      0.686930000000     0.217740000000     0.997170000000     0.040889   
H148     H      0.681020000000     0.168250000000     0.012710000000     0.0565702  
H149     H      0.717430000000     0.247690000000     0.965800000000     0.041039   
H150     H      0.717290000000     0.208460000000     0.090650000000     0.0595643  
H151     H      0.795150000000     0.281580000000     0.012840000000     0.0557894  
H152     H      0.758410000000     0.246630000000     0.931580000000     0.0557353  
H153     H      0.758770000000     0.202870000000     0.057180000000     0.0411714  
H154     H      0.788710000000     0.277720000000     0.901770000000     0.0335109  
H155     H      0.694880000000     0.585280000000     0.707990000000     0.0333534  
H156     H      0.780520000000     0.377910000000     0.825600000000     0.0349309  
H157     H      0.760940000000     0.517320000000     0.733390000000     0.0413064  
H158     H      0.715900000000     0.445760000000     0.799850000000     0.0407336  
H159     H      0.750210000000     0.407660000000     0.795410000000     0.0564765  
H160     H      0.685270000000     0.475900000000     0.768950000000     0.0412619  
H161     H      0.804010000000     0.478570000000     0.816040000000     0.0594972  
H162     H      0.725690000000     0.555690000000     0.738940000000     0.0560065  
H163     H      0.673250000000     0.483940000000     0.715630000000     0.0558822  
H164     H      0.791620000000     0.487020000000     0.764060000000     0.0410349  
H165     H      0.642730000000     0.514160000000     0.685190000000     0.0333923  
H166     H      0.026380000000     0.547280000000     0.115540000000     0.0335334  
H167     H      0.953140000000     0.392380000000     0.921000000000     0.0346489  
H168     H      0.971560000000     0.515040000000     0.037420000000     0.0414328  
H169     H      0.008450000000     0.423780000000     0.999330000000     0.0406733  
H170     H      0.984810000000     0.421280000000     0.950680000000     0.056524   
H171     H      0.040150000000     0.454050000000     0.028990000000     0.0410742  
H172     H      0.915080000000     0.440750000000     0.010950000000     0.059277   
H173     H      0.995180000000     0.516070000000     0.087050000000     0.055885   
H174     H      0.065140000000     0.499690000000     0.025260000000     0.0559397  
H175     H      0.939980000000     0.484990000000     0.007580000000     0.0410681  
H176     H      0.095890000000     0.530820000000     0.054490000000     0.0336002  
N1       N      0.920520000000     0.897940000000     0.442130000000    -0.180567   
N2       N      0.059230000000     0.048660000000     0.581120000000    -0.180456   
N3       N      0.667420000000     0.658300000000     0.590060000000    -0.18072    
N4       N      0.812620000000     0.794690000000     0.441650000000    -0.18066    
N5       N      0.165550000000     0.153620000000     0.574110000000    -0.180807   
N6       N      0.313950000000     0.296730000000     0.436870000000    -0.179839   
N7       N      0.424360000000     0.407830000000     0.435100000000    -0.18077    
N8       N      0.559740000000     0.553190000000     0.583840000000    -0.179859   
N9       N      0.816040000000     0.900580000000     0.329180000000    -0.180773   
N10      N      0.669480000000     0.041810000000     0.187650000000    -0.180264   
N11      N      0.567030000000     0.151390000000     0.197380000000    -0.180786   
N12      N      0.422750000000     0.296440000000     0.336980000000    -0.180133   
N13      N      0.169150000000     0.057540000000     0.689120000000    -0.180649   
N14      N      0.308140000000     0.913390000000     0.835480000000    -0.179952   
N15      N      0.409910000000     0.802200000000     0.829490000000    -0.180855   
N16      N      0.554270000000     0.654710000000     0.692890000000    -0.180386   
N17      N      0.410710000000     0.909250000000     0.943100000000    -0.180875   
N18      N      0.560930000000     0.047070000000     0.084460000000    -0.180166   
N19      N      0.917620000000     0.797850000000     0.326050000000    -0.18049    
N20      N      0.064680000000     0.656990000000     0.184860000000    -0.179882   
N21      N      0.306330000000     0.798690000000     0.936040000000    -0.180713   
N22      N      0.167860000000     0.653880000000     0.082220000000    -0.18021    
N23      N      0.309900000000     0.405100000000     0.338400000000    -0.180871   
N24      N      0.167200000000     0.544120000000     0.190320000000    -0.180152   
N25      N      0.917080000000     0.302410000000     0.829800000000    -0.181266   
N26      N      0.059060000000     0.158110000000     0.686610000000    -0.180115   
N27      N      0.667190000000     0.156080000000     0.086710000000    -0.18095    
N28      N      0.809290000000     0.296960000000     0.939910000000    -0.179893   
N29      N      0.810670000000     0.410270000000     0.838310000000    -0.181016   
N30      N      0.666580000000     0.551880000000     0.694410000000    -0.180409   
N31      N      0.915110000000     0.399930000000     0.947730000000    -0.180555   
N32      N      0.063320000000     0.541400000000     0.087000000000    -0.180051   
O1       O      0.851270000000     0.397980000000     0.866250000000    -0.24761    
O2       O      0.825480000000     0.314630000000     0.894410000000    -0.247583   
O3       O      0.870960000000     0.382590000000     0.930980000000    -0.241412   
O4       O      0.887000000000     0.340530000000     0.839700000000    -0.249202   
O5       O      0.895030000000     0.311760000000     0.875680000000    -0.251492   
O6       O      0.908830000000     0.370170000000     0.906790000000    -0.249164   
O7       O      0.819930000000     0.366060000000     0.858080000000    -0.248775   
O8       O      0.844190000000     0.331200000000     0.934990000000    -0.248151   
O9       O      0.126350000000     0.570520000000     0.181210000000    -0.248507   
O10      O      0.130270000000     0.622610000000     0.088450000000    -0.248843   
O11      O      0.103690000000     0.627170000000     0.180310000000    -0.24691    
O12      O      0.071570000000     0.572430000000     0.126050000000    -0.249427   
O13      O      0.106310000000     0.564710000000     0.095080000000    -0.248306   
O14      O      0.075810000000     0.631840000000     0.141870000000    -0.248904   
O15      O      0.159020000000     0.569620000000     0.146870000000    -0.250563   
O16      O      0.155830000000     0.632770000000     0.127370000000    -0.251231   
O17      O      0.313720000000     0.877710000000     0.870210000000    -0.247926   
O18      O      0.395330000000     0.818910000000     0.876200000000    -0.249978   
O19      O      0.321070000000     0.820750000000     0.891750000000    -0.245788   
O20      O      0.366770000000     0.891000000000     0.926670000000    -0.24721    
O21      O      0.405070000000     0.876200000000     0.905120000000    -0.249915   
O22      O      0.343160000000     0.831530000000     0.932420000000    -0.248973   
O23      O      0.352010000000     0.894680000000     0.849840000000    -0.248585   
O24      O      0.376020000000     0.837610000000     0.837350000000    -0.246317   
O25      O      0.605930000000     0.062970000000     0.098920000000    -0.24968    
O26      O      0.601450000000     0.116790000000     0.188020000000    -0.245641   
O27      O      0.633370000000     0.120360000000     0.091030000000    -0.249655   
O28      O      0.662420000000     0.077180000000     0.152840000000    -0.249946   
O29      O      0.624980000000     0.059860000000     0.174520000000    -0.249122   
O30      O      0.651040000000     0.136720000000     0.131880000000    -0.247128   
O31      O      0.568930000000     0.080310000000     0.121410000000    -0.249719   
O32      O      0.579880000000     0.134820000000     0.150070000000    -0.248704   
O33      O      0.384880000000     0.327650000000     0.340960000000    -0.246195   
O34      O      0.344090000000     0.335130000000     0.432830000000    -0.243775   
O35      O      0.351980000000     0.379170000000     0.342910000000    -0.245266   
O36      O      0.403340000000     0.390840000000     0.390970000000    -0.249457   
O37      O      0.391950000000     0.370840000000     0.432380000000    -0.245316   
O38      O      0.324110000000     0.380220000000     0.381190000000    -0.249936   
O39      O      0.408530000000     0.317890000000     0.381310000000    -0.253118   
O40      O      0.336120000000     0.310870000000     0.392760000000    -0.251841   
O41      O      0.591380000000     0.622580000000     0.688590000000    -0.251134   
O42      O      0.594680000000     0.587050000000     0.591570000000    -0.247644   
O43      O      0.653410000000     0.594940000000     0.674740000000    -0.250737   
O44      O      0.633240000000     0.649660000000     0.627390000000    -0.247191   
O45      O      0.648320000000     0.614550000000     0.601780000000    -0.247054   
O46      O      0.627720000000     0.559100000000     0.662850000000    -0.250311   
O47      O      0.571680000000     0.637510000000     0.647770000000    -0.250692   
O48      O      0.574300000000     0.569040000000     0.630610000000    -0.248085   
O49      O      0.859580000000     0.883730000000     0.348200000000    -0.244658   
O50      O      0.907700000000     0.855520000000     0.419560000000    -0.243613   
O51      O      0.876240000000     0.823240000000     0.338200000000    -0.24588    
O52      O      0.842650000000     0.802040000000     0.400880000000    -0.252875   
O53      O      0.833730000000     0.837180000000     0.429720000000    -0.252377   
O54      O      0.908850000000     0.819480000000     0.372010000000    -0.244667   
O55      O      0.820640000000     0.865800000000     0.365510000000    -0.250237   
O56      O      0.880490000000     0.890940000000     0.411670000000    -0.249139   
O57      O      0.123580000000     0.070330000000     0.672460000000    -0.245037   
O58      O      0.134620000000     0.116070000000     0.583820000000    -0.248      
O59      O      0.087690000000     0.118920000000     0.679820000000    -0.249908   
O60      O      0.100470000000     0.059430000000     0.607870000000    -0.250425   
O61      O      0.068210000000     0.091540000000     0.603600000000    -0.251454   
O62      O      0.080950000000     0.145960000000     0.641700000000    -0.248614   
O63      O      0.159580000000     0.090710000000     0.651780000000    -0.247059   
O64      O      0.144390000000     0.143840000000     0.620320000000    -0.247356   
S1       S      0.957620000000     0.857200000000     0.452770000000     0.00460284 
S2       S      0.656070000000     0.702700000000     0.623510000000     0.00362937 
S3       S      0.155580000000     0.122270000000     0.526270000000     0.00364063 
S4       S      0.445320000000     0.431420000000     0.386050000000     0.00302504 
S5       S      0.861510000000     0.922260000000     0.302200000000     0.00423128 
S6       S      0.594680000000     0.135250000000     0.246300000000     0.00437697 
S7       S      0.216120000000     0.080220000000     0.666170000000     0.00315813 
S8       S      0.386620000000     0.820920000000     0.779150000000     0.00446034 
S9       S      0.366060000000     0.929690000000     0.972580000000     0.00354988 
S10      S      0.882010000000     0.803790000000     0.280200000000     0.0038272  
S11      S      0.275440000000     0.784250000000     0.888620000000     0.00452919 
S12      S      0.271840000000     0.407410000000     0.382430000000     0.00272741 
S13      S      0.911090000000     0.336440000000     0.783340000000     0.00379155 
S14      S      0.688430000000     0.181270000000     0.134750000000     0.00380904 
S15      S      0.843440000000     0.453630000000     0.852020000000     0.00394444 
S16      S      0.872420000000     0.410410000000     0.985260000000     0.00486834 


