data_structure

_audit_creation_method RASPA-1.0
_audit_creation_date 2023-6-5
_audit_author_name 'Poobodin Mano'

_cell_length_a    56.4047
_cell_length_b    56.4609
_cell_length_c    32.1458
_cell_angle_alpha 90.034
_cell_angle_beta  89.9099
_cell_angle_gamma 90
_cell_volume      102373

_symmetry_cell_setting          triclinic
_symmetry_space_group_name_Hall 'P 1'
_symmetry_space_group_name_H-M  'P 1'
_symmetry_Int_Tables_number     1

_symmetry_equiv_pos_as_xyz 'x,y,z'

loop_
_atom_site_label
_atom_site_type_symbol
_atom_site_fract_x
_atom_site_fract_y
_atom_site_fract_z
_atom_site_charge
C1       C      0.388530000000     0.336960000000     0.976100000000     0.344852   
C2       C      0.317220000000     0.322330000000     0.049640000000     0.346478   
C3       C      0.327910000000     0.392640000000     0.970930000000     0.349511   
C4       C      0.319000000000     0.318840000000     0.901150000000     0.349143   
C5       C      0.329450000000     0.642520000000     0.944190000000     0.346469   
C6       C      0.315200000000     0.717160000000     0.018050000000     0.346764   
C7       C      0.385540000000     0.701770000000     0.945620000000     0.348117   
C8       C      0.310340000000     0.711860000000     0.873550000000     0.347167   
C9       C      0.638890000000     0.323540000000     0.974550000000     0.349342   
C10      C      0.713390000000     0.310610000000     0.906010000000     0.345562   
C11      C      0.695820000000     0.381160000000     0.976850000000     0.347353   
C12      C      0.708530000000     0.307320000000     0.052000000000     0.347269   
C13      C      0.706700000000     0.706740000000     0.893570000000     0.34729    
C14      C      0.693420000000     0.631720000000     0.966990000000     0.347177   
C15      C      0.708370000000     0.701870000000     0.038940000000     0.346374   
C16      C      0.635770000000     0.688520000000     0.959440000000     0.345328   
C17      C      0.820210000000     0.208150000000     0.549830000000     0.346703   
C18      C      0.832160000000     0.132040000000     0.479650000000     0.347678   
C19      C      0.813440000000     0.200860000000     0.405920000000     0.34765    
C20      C      0.889590000000     0.189520000000     0.479920000000     0.345536   
C21      C      0.812870000000     0.809630000000     0.537000000000     0.346095   
C22      C      0.885790000000     0.822760000000     0.454510000000     0.348953   
C23      C      0.812900000000     0.809810000000     0.391610000000     0.346821   
C24      C      0.831880000000     0.881240000000     0.472100000000     0.344899   
C25      C      0.206370000000     0.822270000000     0.369690000000     0.348653   
C26      C      0.135820000000     0.834030000000     0.449410000000     0.34589    
C27      C      0.206080000000     0.817900000000     0.518850000000     0.347704   
C28      C      0.195720000000     0.891400000000     0.445030000000     0.347536   
C29      C      0.214560000000     0.213730000000     0.404030000000     0.346761   
C30      C      0.194270000000     0.140930000000     0.475990000000     0.347888   
C31      C      0.212430000000     0.213260000000     0.548030000000     0.346728   
C32      C      0.140170000000     0.198180000000     0.469030000000     0.348007   
C33      C      0.181480000000     0.077390000000     0.494460000000    -0.130342   
C34      C      0.211760000000     0.926140000000     0.476140000000     0.0716164  
C35      C      0.187240000000     0.929240000000     0.416520000000     0.071901   
C36      C      0.213280000000     0.950820000000     0.478860000000    -0.0892183  
C37      C      0.221640000000     0.003850000000     0.462210000000    -0.0365662  
C38      C      0.221060000000     0.028510000000     0.466500000000    -0.031615   
C39      C      0.200670000000     0.991110000000     0.454660000000    -0.00420637 
C40      C      0.188180000000     0.953900000000     0.418570000000    -0.0898018  
C41      C      0.199440000000     0.040810000000     0.463940000000    -0.0130377  
C42      C      0.214350000000     0.081480000000     0.447560000000    -0.100879   
C43      C      0.178500000000     0.028040000000     0.456510000000    -0.0316143  
C44      C      0.212440000000     0.106020000000     0.451030000000     0.0740847  
C45      C      0.179950000000     0.102190000000     0.498040000000     0.153175   
C46      C      0.179120000000     0.003480000000     0.451750000000    -0.0366139  
C47      C      0.201010000000     0.964970000000     0.450340000000     0.0490475  
C48      C      0.198570000000     0.066910000000     0.468940000000     0.0660656  
C49      C      0.160740000000     0.111830000000     0.526350000000    -0.224465   
C50      C      0.946620000000     0.820070000000     0.411000000000    -0.129751   
C51      C      0.101900000000     0.808900000000     0.449610000000     0.0705509  
C52      C      0.097170000000     0.850640000000     0.449850000000     0.0710669  
C53      C      0.077300000000     0.805820000000     0.449010000000    -0.0893941  
C54      C      0.024590000000     0.806110000000     0.472030000000    -0.0364542  
C55      C      0.999850000000     0.804400000000     0.471880000000    -0.0315157  
C56      C      0.036160000000     0.822920000000     0.446960000000    -0.00410426 
C57      C      0.072570000000     0.848210000000     0.449070000000    -0.0895365  
C58      C      0.986180000000     0.819360000000     0.446460000000    -0.0126856  
C59      C      0.947810000000     0.816740000000     0.485350000000    -0.100044   
C60      C      0.997810000000     0.835830000000     0.420810000000    -0.0314735  
C61      C      0.923140000000     0.817600000000     0.486190000000     0.0751542  
C62      C      0.921670000000     0.820620000000     0.412330000000     0.153635   
C63      C      0.022500000000     0.837610000000     0.421090000000    -0.0367428  
C64      C      0.062330000000     0.825620000000     0.448400000000     0.0485305  
C65      C      0.959870000000     0.818440000000     0.447580000000     0.0660009  
C66      C      0.908870000000     0.821770000000     0.371000000000    -0.224468   
C67      C      0.822330000000     0.070410000000     0.515460000000    -0.129822   
C68      C      0.811150000000     0.917250000000     0.459810000000     0.0705231  
C69      C      0.849210000000     0.918070000000     0.491000000000     0.0705549  
C70      C      0.809960000000     0.941960000000     0.460960000000    -0.0894775  
C71      C      0.818910000000     0.994180000000     0.444260000000    -0.0364647  
C72      C      0.818690000000     0.018940000000     0.444670000000    -0.0317613  
C73      C      0.828190000000     0.981400000000     0.478080000000    -0.00409453 
C74      C      0.848620000000     0.942780000000     0.492590000000    -0.089227   
C75      C      0.827730000000     0.031520000000     0.478910000000    -0.012578   
C76      C      0.833640000000     0.070650000000     0.443510000000    -0.100079   
C77      C      0.836900000000     0.018730000000     0.512800000000    -0.0315342  
C78      C      0.834400000000     0.095310000000     0.444720000000     0.0742172  
C79      C      0.823020000000     0.095340000000     0.516110000000     0.153674   
C80      C      0.837100000000     0.993990000000     0.512410000000    -0.0366355  
C81      C      0.828880000000     0.955070000000     0.477310000000     0.0482831  
C82      C      0.827840000000     0.057870000000     0.479230000000     0.0656802  
C83      C      0.815970000000     0.107310000000     0.556470000000    -0.225124   
C84      C      0.077560000000     0.193990000000     0.434770000000    -0.129633   
C85      C      0.927850000000     0.175470000000     0.498500000000     0.0705033  
C86      C      0.923990000000     0.211570000000     0.461510000000     0.0704706  
C87      C      0.952500000000     0.177610000000     0.498130000000    -0.0894291  
C88      C      0.003390000000     0.192920000000     0.511770000000    -0.0367042  
C89      C      0.028110000000     0.194070000000     0.509750000000    -0.031673   
C90      C      0.989490000000     0.199300000000     0.477280000000    -0.00408035 
C91      C      0.948620000000     0.214280000000     0.460570000000    -0.0893543  
C92      C      0.039550000000     0.201630000000     0.473200000000    -0.0126444  
C93      C      0.079550000000     0.209470000000     0.504160000000    -0.100181   
C94      C      0.025640000000     0.208370000000     0.438920000000    -0.0316546  
C95      C      0.104200000000     0.208500000000     0.501990000000     0.0738647  
C96      C      0.102500000000     0.193320000000     0.432920000000     0.15282    
C97      C      0.000910000000     0.207220000000     0.440940000000    -0.0366227  
C98      C      0.963220000000     0.197130000000     0.478860000000     0.0482406  
C99      C      0.065890000000     0.201870000000     0.470590000000     0.0653049  
C100     C      0.113460000000     0.184910000000     0.392470000000    -0.22458    
C101     C      0.717370000000     0.748690000000     0.806710000000    -0.129288   
C102     C      0.811560000000     0.779670000000     0.588890000000     0.0713712  
C103     C      0.782760000000     0.810270000000     0.588870000000     0.0709595  
C104     C      0.801230000000     0.769570000000     0.624180000000    -0.0888539  
C105     C      0.784060000000     0.760700000000     0.712430000000    -0.0363445  
C106     C      0.773550000000     0.750740000000     0.747720000000    -0.0313176  
C107     C      0.770000000000     0.769520000000     0.679850000000    -0.00375574 
C108     C      0.771940000000     0.800590000000     0.624100000000    -0.0889401  
C109     C      0.748750000000     0.749340000000     0.751270000000    -0.0123458  
C110     C      0.747010000000     0.718240000000     0.806750000000    -0.0996732  
C111     C      0.734690000000     0.758190000000     0.718690000000    -0.031385   
C112     C      0.736280000000     0.708300000000     0.841670000000     0.0747539  
C113     C      0.706730000000     0.738450000000     0.842070000000     0.153478   
C114     C      0.745190000000     0.768180000000     0.683430000000    -0.0365128  
C115     C      0.781190000000     0.780020000000     0.642260000000     0.0486839  
C116     C      0.737570000000     0.738620000000     0.788730000000     0.0658381  
C117     C      0.685050000000     0.750830000000     0.859480000000    -0.224852   
C118     C      0.782180000000     0.802080000000     0.290580000000    -0.130057   
C119     C      0.742520000000     0.715480000000     0.075090000000     0.0710211  
C120     C      0.704770000000     0.717200000000     0.107530000000     0.0714269  
C121     C      0.753090000000     0.725610000000     0.110110000000    -0.0892302  
C122     C      0.771650000000     0.735170000000     0.197570000000    -0.0364864  
C123     C      0.781860000000     0.746100000000     0.232230000000    -0.0315327  
C124     C      0.749950000000     0.743290000000     0.181550000000    -0.00395785 
C125     C      0.714730000000     0.727460000000     0.142950000000    -0.0892707  
C126     C      0.770660000000     0.765490000000     0.251430000000    -0.0127583  
C127     C      0.791620000000     0.764210000000     0.320000000000    -0.100358   
C128     C      0.748930000000     0.773560000000     0.235460000000    -0.0314813  
C129     C      0.801720000000     0.775680000000     0.354030000000     0.0737783  
C130     C      0.792500000000     0.813410000000     0.325110000000     0.153211   
C131     C      0.738670000000     0.762560000000     0.200970000000    -0.0366228  
C132     C      0.739150000000     0.731880000000     0.144500000000     0.0486965  
C133     C      0.781660000000     0.777390000000     0.287820000000     0.0657974  
C134     C      0.792010000000     0.840240000000     0.325330000000    -0.224939   
C135     C      0.809990000000     0.251430000000     0.634990000000    -0.129576   
C136     C      0.715800000000     0.280970000000     0.853710000000     0.0706999  
C137     C      0.743570000000     0.312500000000     0.854310000000     0.070316   
C138     C      0.726420000000     0.271420000000     0.818230000000    -0.0897126  
C139     C      0.743480000000     0.263520000000     0.729940000000    -0.0367557  
C140     C      0.754080000000     0.253610000000     0.694710000000    -0.0318351  
C141     C      0.757430000000     0.272740000000     0.762320000000    -0.00416659 
C142     C      0.754670000000     0.303400000000     0.818840000000    -0.0894278  
C143     C      0.778900000000     0.252660000000     0.691010000000    -0.0128201  
C144     C      0.780940000000     0.220450000000     0.637690000000    -0.100812   
C145     C      0.792870000000     0.262160000000     0.723130000000    -0.0316715  
C146     C      0.791500000000     0.210010000000     0.603100000000     0.0735489  
C147     C      0.820490000000     0.240640000000     0.599960000000     0.152281   
C148     C      0.782250000000     0.272110000000     0.758390000000    -0.0367657  
C149     C      0.746060000000     0.282660000000     0.800260000000     0.0483227  
C150     C      0.790100000000     0.241400000000     0.654060000000     0.0653357  
C151     C      0.841940000000     0.252850000000     0.581400000000    -0.224403   
C152     C      0.766700000000     0.223860000000     0.335630000000    -0.129426   
C153     C      0.722530000000     0.272730000000     0.086210000000     0.0708518  
C154     C      0.722630000000     0.309600000000     0.121570000000     0.0709464  
C155     C      0.732360000000     0.261550000000     0.120880000000    -0.0889984  
C156     C      0.766100000000     0.245830000000     0.188920000000    -0.0363941  
C157     C      0.776400000000     0.235120000000     0.223660000000    -0.0315585  
C158     C      0.748380000000     0.263140000000     0.193720000000    -0.0038813  
C159     C      0.732500000000     0.298990000000     0.156770000000    -0.0891562  
C160     C      0.769250000000     0.241470000000     0.264080000000    -0.0124697  
C161     C      0.804700000000     0.225940000000     0.302260000000    -0.099784   
C162     C      0.751480000000     0.258740000000     0.268880000000    -0.0315411  
C163     C      0.814930000000     0.215830000000     0.337450000000     0.0742652  
C164     C      0.777290000000     0.213560000000     0.370920000000     0.152837   
C165     C      0.741170000000     0.269440000000     0.234140000000    -0.0366503  
C166     C      0.737570000000     0.274690000000     0.156730000000     0.0483736  
C167     C      0.780360000000     0.230250000000     0.301100000000     0.0654803  
C168     C      0.760910000000     0.206780000000     0.406350000000    -0.224506   
C169     C      0.720180000000     0.442180000000     0.982090000000    -0.129717   
C170     C      0.699100000000     0.595270000000     0.931310000000     0.0718573  
C171     C      0.695250000000     0.595550000000     0.004760000000     0.071643   
C172     C      0.700920000000     0.570600000000     0.931290000000    -0.089113   
C173     C      0.688230000000     0.518630000000     0.938840000000    -0.036265   
C174     C      0.688290000000     0.493910000000     0.939780000000    -0.0313421  
C175     C      0.700450000000     0.531730000000     0.969200000000    -0.00377119 
C176     C      0.697010000000     0.570880000000     0.005880000000    -0.0888303  
C177     C      0.700560000000     0.481650000000     0.971120000000    -0.0126371  
C178     C      0.678790000000     0.443220000000     0.965290000000    -0.100348   
C179     C      0.713050000000     0.494720000000     0.001200000000    -0.031237   
C180     C      0.678250000000     0.418610000000     0.966960000000     0.0746163  
C181     C      0.719360000000     0.417240000000     0.983630000000     0.154167   
C182     C      0.712970000000     0.519490000000     0.000280000000    -0.0364915  
C183     C      0.699670000000     0.558060000000     0.968820000000     0.0487698  
C184     C      0.699880000000     0.455340000000     0.972820000000     0.0660548  
C185     C      0.742280000000     0.404530000000     0.993710000000    -0.226132   
C186     C      0.267930000000     0.721490000000     0.786990000000    -0.12951    
C187     C      0.233660000000     0.790990000000     0.548610000000     0.0715407  
C188     C      0.207010000000     0.812060000000     0.592120000000     0.0715679  
C189     C      0.243720000000     0.779930000000     0.583160000000    -0.0892029  
C190     C      0.270840000000     0.770940000000     0.663030000000    -0.0363528  
C191     C      0.281080000000     0.760460000000     0.698010000000    -0.0314739  
C192     C      0.246130000000     0.773760000000     0.660330000000    -0.00384843 
C193     C      0.216650000000     0.801290000000     0.627370000000    -0.0889766  
C194     C      0.266850000000     0.752510000000     0.731120000000    -0.0126171  
C195     C      0.298320000000     0.751190000000     0.785830000000    -0.10051    
C196     C      0.242130000000     0.755240000000     0.728390000000    -0.0314348  
C197     C      0.308500000000     0.740790000000     0.820760000000     0.0744204  
C198     C      0.278460000000     0.711140000000     0.822320000000     0.153084   
C199     C      0.231880000000     0.765790000000     0.693420000000    -0.0365697  
C200     C      0.235310000000     0.785070000000     0.623180000000     0.0487746  
C201     C      0.277830000000     0.741580000000     0.768480000000     0.0658233  
C202     C      0.266400000000     0.689430000000     0.840180000000    -0.224775   
C203     C      0.214300000000     0.791130000000     0.269010000000    -0.129796   
C204     C      0.304630000000     0.716820000000     0.089680000000     0.0714365  
C205     C      0.296400000000     0.750660000000     0.048480000000     0.0709374  
C206     C      0.294400000000     0.727650000000     0.124410000000    -0.0891919  
C207     C      0.283470000000     0.760420000000     0.197160000000    -0.0363329  
C208     C      0.272390000000     0.770900000000     0.231460000000    -0.0313054  
C209     C      0.273260000000     0.761950000000     0.157390000000    -0.00392354 
C210     C      0.285940000000     0.761960000000     0.082530000000    -0.0892446  
C211     C      0.250790000000     0.783020000000     0.226780000000    -0.0125251  
C212     C      0.251580000000     0.806260000000     0.293100000000    -0.100109   
C213     C      0.240650000000     0.784670000000     0.186980000000    -0.0315146  
C214     C      0.240080000000     0.815800000000     0.327630000000     0.0750933  
C215     C      0.202920000000     0.800920000000     0.304050000000     0.154207   
C216     C      0.251790000000     0.774290000000     0.152650000000    -0.03646    
C217     C      0.284770000000     0.750430000000     0.121050000000     0.048769   
C218     C      0.238740000000     0.793660000000     0.263410000000     0.0662107  
C219     C      0.176310000000     0.797670000000     0.306890000000    -0.225285   
C220     C      0.447710000000     0.709760000000     0.911150000000    -0.129876   
C221     C      0.601220000000     0.711870000000     0.970470000000     0.0708297  
C222     C      0.597800000000     0.673350000000     0.941690000000     0.0708146  
C223     C      0.576650000000     0.714850000000     0.968690000000    -0.0892807  
C224     C      0.523660000000     0.710320000000     0.984080000000    -0.0362772  
C225     C      0.498960000000     0.712290000000     0.982850000000    -0.0315523  
C226     C      0.536080000000     0.699330000000     0.951380000000    -0.00390536 
C227     C      0.573200000000     0.675720000000     0.939520000000    -0.0890535  
C228     C      0.486100000000     0.703320000000     0.948880000000    -0.0123775  
C229     C      0.446460000000     0.700400000000     0.983900000000    -0.0998779  
C230     C      0.498550000000     0.692540000000     0.916010000000    -0.0314051  
C231     C      0.421780000000     0.700400000000     0.982100000000     0.0748982  
C232     C      0.422760000000     0.709920000000     0.909960000000     0.154536   
C233     C      0.523220000000     0.690600000000     0.917220000000    -0.0365415  
C234     C      0.562290000000     0.696640000000     0.953140000000     0.0484701  
C235     C      0.459760000000     0.704660000000     0.948040000000     0.0659842  
C236     C      0.411300000000     0.716580000000     0.869010000000    -0.225679   
C237     C      0.311760000000     0.294540000000     0.794670000000    -0.129802   
C238     C      0.219530000000     0.246850000000     0.590880000000     0.0707731  
C239     C      0.236150000000     0.209650000000     0.608750000000     0.0705577  
C240     C      0.229920000000     0.257310000000     0.625760000000    -0.0893299  
C241     C      0.242730000000     0.270860000000     0.714520000000    -0.0365354  
C242     C      0.253450000000     0.281140000000     0.749290000000    -0.031594   
C243     C      0.255190000000     0.254510000000     0.689770000000    -0.00405495 
C244     C      0.246860000000     0.219540000000     0.643830000000    -0.0894639  
C245     C      0.276900000000     0.275370000000     0.760000000000    -0.0127718  
C246     C      0.276000000000     0.289170000000     0.834010000000    -0.100421   
C247     C      0.289350000000     0.259010000000     0.735270000000    -0.0315497  
C248     C      0.286920000000     0.299810000000     0.868070000000     0.0740397  
C249     C      0.322570000000     0.305240000000     0.829400000000     0.152995   
C250     C      0.278610000000     0.248670000000     0.700590000000    -0.0367707  
C251     C      0.243830000000     0.243650000000     0.652700000000     0.0483871  
C252     C      0.288370000000     0.286490000000     0.796730000000     0.0656999  
C253     C      0.348060000000     0.313180000000     0.824190000000    -0.224705   
C254     C      0.258330000000     0.229480000000     0.322320000000    -0.129617   
C255     C      0.285310000000     0.319260000000     0.097780000000     0.0715458  
C256     C      0.319860000000     0.295940000000     0.107030000000     0.0712438  
C257     C      0.274990000000     0.309190000000     0.133130000000    -0.0891283  
C258     C      0.252580000000     0.274170000000     0.193360000000    -0.036398   
C259     C      0.242550000000     0.263250000000     0.228190000000    -0.0314597  
C260     C      0.276590000000     0.280880000000     0.193300000000    -0.00384976 
C261     C      0.310110000000     0.285550000000     0.142560000000    -0.0890463  
C262     C      0.256290000000     0.258780000000     0.263800000000    -0.0125268  
C263     C      0.222940000000     0.252550000000     0.314210000000    -0.100122   
C264     C      0.280250000000     0.265660000000     0.263850000000    -0.0314489  
C265     C      0.213250000000     0.241130000000     0.348670000000     0.0739466  
C266     C      0.248290000000     0.218070000000     0.357090000000     0.153347   
C267     C      0.290280000000     0.276560000000     0.229010000000    -0.0365498  
C268     C      0.287380000000     0.292070000000     0.155960000000     0.0487385  
C269     C      0.245720000000     0.246820000000     0.300630000000     0.0657116  
C270     C      0.263310000000     0.199390000000     0.378240000000    -0.225157   
C271     C      0.577040000000     0.321270000000     0.936170000000    -0.130274   
C272     C      0.422910000000     0.312590000000     0.978860000000     0.0706231  
C273     C      0.426880000000     0.354320000000     0.974380000000     0.0707496  
C274     C      0.447550000000     0.309930000000     0.978930000000    -0.0895489  
C275     C      0.500030000000     0.311770000000     0.002420000000    -0.0363255  
C276     C      0.524760000000     0.309870000000     0.001920000000    -0.0316036  
C277     C      0.488390000000     0.327540000000     0.975470000000    -0.00426905 
C278     C      0.451540000000     0.352310000000     0.974150000000    -0.0895352  
C279     C      0.538340000000     0.323570000000     0.974220000000    -0.0127093  
C280     C      0.577470000000     0.321340000000     0.010790000000    -0.100024   
C281     C      0.526670000000     0.339190000000     0.947080000000    -0.0315841  
C282     C      0.602180000000     0.321210000000     0.009720000000     0.0749447  
C283     C      0.601990000000     0.320780000000     0.935620000000     0.154663   
C284     C      0.502000000000     0.341190000000     0.947750000000    -0.0366798  
C285     C      0.462180000000     0.329930000000     0.976320000000     0.0484882  
C286     C      0.564620000000     0.321870000000     0.973780000000     0.0661248  
C287     C      0.613800000000     0.319270000000     0.893350000000    -0.225498   
C288     C      0.312240000000     0.452710000000     0.933500000000    -0.129776   
C289     C      0.345620000000     0.604590000000     0.929450000000     0.0708913  
C290     C      0.307940000000     0.607660000000     0.961800000000     0.0708729  
C291     C      0.344620000000     0.579930000000     0.931730000000    -0.0897187  
C292     C      0.344260000000     0.530090000000     0.966810000000    -0.0362266  
C293     C      0.343650000000     0.505470000000     0.970620000000    -0.0314304  
C294     C      0.324070000000     0.542660000000     0.953860000000    -0.00417525 
C295     C      0.306290000000     0.583000000000     0.964400000000    -0.0895166  
C296     C      0.322870000000     0.492810000000     0.961390000000    -0.0126042  
C297     C      0.333020000000     0.455200000000     0.998410000000    -0.10031    
C298     C      0.302630000000     0.505350000000     0.948540000000    -0.0316734  
C299     C      0.333750000000     0.430570000000     0.999990000000     0.0752431  
C300     C      0.313000000000     0.427800000000     0.935690000000     0.153774   
C301     C      0.303200000000     0.530030000000     0.944970000000    -0.0366379  
C302     C      0.324910000000     0.568840000000     0.949720000000     0.0486936  
C303     C      0.322550000000     0.466570000000     0.964620000000     0.0660758  
C304     C      0.300780000000     0.414270000000     0.901130000000    -0.224877   
Cd1      Cd     0.337580000000     0.342280000000     0.974690000000     0.506663   
Cd2      Cd     0.334810000000     0.693450000000     0.945900000000     0.506785   
Cd3      Cd     0.689780000000     0.330130000000     0.978310000000     0.506638   
Cd4      Cd     0.686560000000     0.682430000000     0.964980000000     0.507268   
Cd5      Cd     0.838760000000     0.182960000000     0.478080000000     0.505954   
Cd6      Cd     0.835290000000     0.830320000000     0.464470000000     0.506768   
Cd7      Cd     0.186550000000     0.841030000000     0.446230000000     0.507753   
Cd8      Cd     0.191040000000     0.192180000000     0.474960000000     0.50663    
H1       H      0.176830000000     0.921380000000     0.391770000000     0.0319886  
H2       H      0.225000000000     0.116470000000     0.433230000000     0.0299151  
H3       H      0.162650000000     0.994110000000     0.446360000000     0.0403119  
H4       H      0.237440000000     0.037930000000     0.472400000000     0.0385392  
H5       H      0.227790000000     0.073990000000     0.427350000000     0.0567441  
H6       H      0.238500000000     0.994750000000     0.464410000000     0.0402029  
H7       H      0.169360000000     0.066160000000     0.511700000000     0.062471   
H8       H      0.178750000000     0.964250000000     0.395550000000     0.0546269  
H9       H      0.223340000000     0.958730000000     0.503950000000     0.0549765  
H10      H      0.161630000000     0.037090000000     0.454020000000     0.0378109  
H11      H      0.221020000000     0.915750000000     0.499370000000     0.0321917  
H12      H      0.147980000000     0.122620000000     0.508140000000     0.0943535  
H13      H      0.150330000000     0.097520000000     0.541530000000     0.0751793  
H14      H      0.168750000000     0.122490000000     0.551720000000     0.0969218  
H15      H      0.104340000000     0.868460000000     0.450250000000     0.0322026  
H16      H      0.914810000000     0.816780000000     0.516590000000     0.0327286  
H17      H      0.030900000000     0.850550000000     0.401040000000     0.0396299  
H18      H      0.991400000000     0.791380000000     0.491730000000     0.0384416  
H19      H      0.957390000000     0.815540000000     0.514450000000     0.0574735  
H20      H      0.034620000000     0.794640000000     0.492470000000     0.0401265  
H21      H      0.955770000000     0.820790000000     0.381330000000     0.0619816  
H22      H      0.061650000000     0.863990000000     0.449350000000     0.0544735  
H23      H      0.070090000000     0.788040000000     0.448260000000     0.0539806  
H24      H      0.987800000000     0.847770000000     0.401170000000     0.0378526  
H25      H      0.112930000000     0.793170000000     0.449620000000     0.030881   
H26      H      0.900070000000     0.839240000000     0.367440000000     0.0948789  
H27      H      0.921170000000     0.819630000000     0.344210000000     0.0749838  
H28      H      0.895740000000     0.807180000000     0.368690000000     0.0953262  
H29      H      0.864900000000     0.909280000000     0.502830000000     0.0315257  
H30      H      0.839450000000     0.104240000000     0.416180000000     0.0312051  
H31      H      0.844130000000     0.984720000000     0.539170000000     0.0396332  
H32      H      0.811290000000     0.028220000000     0.418240000000     0.0378773  
H33      H      0.838180000000     0.061660000000     0.414810000000     0.0567174  
H34      H      0.812140000000     0.985050000000     0.417120000000     0.0392934  
H35      H      0.817160000000     0.060770000000     0.543180000000     0.0619867  
H36      H      0.863780000000     0.952170000000     0.505020000000     0.0540734  
H37      H      0.794210000000     0.950690000000     0.449370000000     0.053647   
H38      H      0.844250000000     0.027850000000     0.539480000000     0.0377515  
H39      H      0.796180000000     0.907770000000     0.446790000000     0.0307521  
H40      H      0.801610000000     0.120360000000     0.550780000000     0.0967193  
H41      H      0.808960000000     0.094520000000     0.579690000000     0.0754034  
H42      H      0.831620000000     0.116040000000     0.570700000000     0.0969194  
H43      H      0.913310000000     0.225200000000     0.446920000000     0.0314844  
H44      H      0.113810000000     0.214350000000     0.529320000000     0.0315746  
H45      H      0.990760000000     0.212060000000     0.413670000000     0.0396845  
H46      H      0.038280000000     0.188540000000     0.536600000000     0.0378618  
H47      H      0.071260000000     0.216150000000     0.532240000000     0.056625   
H48      H      0.995170000000     0.187030000000     0.540410000000     0.0393489  
H49      H      0.067210000000     0.187900000000     0.408460000000     0.0617613  
H50      H      0.956120000000     0.229810000000     0.445820000000     0.0539257  
H51      H      0.963080000000     0.163750000000     0.512160000000     0.0537869  
H52      H      0.033880000000     0.214540000000     0.410470000000     0.0374202  
H53      H      0.920300000000     0.159980000000     0.513440000000     0.0308721  
H54      H      0.122480000000     0.167650000000     0.397230000000     0.0942693  
H55      H      0.099990000000     0.182250000000     0.367720000000     0.0750432  
H56      H      0.126090000000     0.198360000000     0.380470000000     0.0967911  
H57      H      0.775130000000     0.826260000000     0.575880000000     0.0317118  
H58      H      0.744380000000     0.692380000000     0.854040000000     0.0327933  
H59      H      0.733870000000     0.774500000000     0.658620000000     0.039962   
H60      H      0.784890000000     0.744430000000     0.772520000000     0.0386619  
H61      H      0.762490000000     0.709690000000     0.793570000000     0.057255   
H62      H      0.803210000000     0.761790000000     0.710920000000     0.0404     
H63      H      0.710070000000     0.764770000000     0.793500000000     0.0620091  
H64      H      0.756630000000     0.809400000000     0.637350000000     0.0541597  
H65      H      0.808780000000     0.753480000000     0.636870000000     0.0546933  
H66      H      0.715540000000     0.757050000000     0.720120000000     0.0378555  
H67      H      0.827020000000     0.771000000000     0.575800000000     0.0328284  
H68      H      0.688280000000     0.756290000000     0.892170000000     0.0966748  
H69      H      0.680600000000     0.767200000000     0.841960000000     0.075602   
H70      H      0.669370000000     0.739010000000     0.857420000000     0.0964264  
H71      H      0.685800000000     0.714110000000     0.107560000000     0.0326907  
H72      H      0.809140000000     0.764470000000     0.378120000000     0.0313417  
H73      H      0.722050000000     0.769380000000     0.189140000000     0.0399286  
H74      H      0.798700000000     0.739590000000     0.243640000000     0.0382528  
H75      H      0.791360000000     0.745030000000     0.319250000000     0.0571675  
H76      H      0.780660000000     0.720230000000     0.183510000000     0.0401811  
H77      H      0.774750000000     0.812530000000     0.265500000000     0.0620994  
H78      H      0.703370000000     0.731750000000     0.169080000000     0.0548053  
H79      H      0.772000000000     0.728940000000     0.109870000000     0.0543728  
H80      H      0.739760000000     0.788310000000     0.249830000000     0.0378904  
H81      H      0.753880000000     0.711080000000     0.048950000000     0.0318106  
H82      H      0.810360000000     0.847340000000     0.324700000000     0.0957995  
H83      H      0.782760000000     0.847610000000     0.297710000000     0.0752172  
H84      H      0.782280000000     0.846770000000     0.353100000000     0.0976509  
H85      H      0.750650000000     0.328670000000     0.867630000000     0.0302082  
H86      H      0.783540000000     0.193710000000     0.591970000000     0.0294855  
H87      H      0.793500000000     0.278800000000     0.783010000000     0.0395337  
H88      H      0.742800000000     0.246840000000     0.670190000000     0.0375591  
H89      H      0.765760000000     0.211870000000     0.651860000000     0.055766   
H90      H      0.724310000000     0.264130000000     0.731640000000     0.039247   
H91      H      0.817140000000     0.267860000000     0.647090000000     0.061719   
H92      H      0.769680000000     0.312770000000     0.805730000000     0.0535144  
H93      H      0.719410000000     0.255160000000     0.805270000000     0.053763   
H94      H      0.812040000000     0.261430000000     0.721480000000     0.0374142  
H95      H      0.700640000000     0.271710000000     0.866630000000     0.0309135  
H96      H      0.838220000000     0.258210000000     0.548830000000     0.0956617  
H97      H      0.846760000000     0.269230000000     0.598610000000     0.0751749  
H98      H      0.857600000000     0.240960000000     0.582770000000     0.0955659  
H99      H      0.719140000000     0.328470000000     0.122780000000     0.0310564  
H100     H      0.833980000000     0.213220000000     0.336640000000     0.0321983  
H101     H      0.727390000000     0.282510000000     0.238980000000     0.0396102  
H102     H      0.789860000000     0.221720000000     0.218820000000     0.0383531  
H103     H      0.816010000000     0.230790000000     0.276360000000     0.0568955  
H104     H      0.772270000000     0.240750000000     0.158270000000     0.0399092  
H105     H      0.747690000000     0.226600000000     0.334850000000     0.0618728  
H106     H      0.736500000000     0.309900000000     0.183580000000     0.0539831  
H107     H      0.735640000000     0.242660000000     0.119660000000     0.0542276  
H108     H      0.745730000000     0.264240000000     0.299560000000     0.0375207  
H109     H      0.718800000000     0.261930000000     0.059100000000     0.0319099  
H110     H      0.764790000000     0.217770000000     0.434160000000     0.0951012  
H111     H      0.741950000000     0.209650000000     0.398520000000     0.0750713  
H112     H      0.762850000000     0.187660000000     0.413620000000     0.0954822  
H113     H      0.692900000000     0.604790000000     0.034070000000     0.032295   
H114     H      0.661270000000     0.410280000000     0.960890000000     0.0310095  
H115     H      0.722770000000     0.529040000000     0.023880000000     0.0399176  
H116     H      0.678710000000     0.484370000000     0.915870000000     0.0383357  
H117     H      0.662540000000     0.452720000000     0.958610000000     0.0569321  
H118     H      0.678190000000     0.527480000000     0.914720000000     0.0402254  
H119     H      0.736770000000     0.451360000000     0.987560000000     0.062212   
H120     H      0.695710000000     0.561910000000     0.035570000000     0.054746   
H121     H      0.703350000000     0.561450000000     0.901970000000     0.0545678  
H122     H      0.722520000000     0.485820000000     0.025960000000     0.0378824  
H123     H      0.699990000000     0.604280000000     0.901560000000     0.0326868  
H124     H      0.747460000000     0.392820000000     0.967480000000     0.0978273  
H125     H      0.757230000000     0.417020000000     0.998730000000     0.0760562  
H126     H      0.740260000000     0.394190000000     0.022860000000     0.0976155  
H127     H      0.192700000000     0.824630000000     0.596690000000     0.0322641  
H128     H      0.324400000000     0.749130000000     0.832780000000     0.0307545  
H129     H      0.212770000000     0.767500000000     0.692150000000     0.0398379  
H130     H      0.300160000000     0.758410000000     0.698970000000     0.0382017  
H131     H      0.306410000000     0.766930000000     0.772790000000     0.0567748  
H132     H      0.282340000000     0.777110000000     0.638290000000     0.0401972  
H133     H      0.252150000000     0.713670000000     0.773530000000     0.0620965  
H134     H      0.209770000000     0.805980000000     0.657760000000     0.0546275  
H135     H      0.257890000000     0.767260000000     0.578430000000     0.0544756  
H136     H      0.230700000000     0.749510000000     0.753550000000     0.0377782  
H137     H      0.240700000000     0.786510000000     0.518200000000     0.0320959  
H138     H      0.260820000000     0.692850000000     0.872770000000     0.096509   
H139     H      0.250130000000     0.684560000000     0.822690000000     0.0755161  
H140     H      0.278500000000     0.673950000000     0.838550000000     0.0959669  
H141     H      0.296920000000     0.760170000000     0.019190000000     0.0314933  
H142     H      0.251050000000     0.825280000000     0.349760000000     0.0323068  
H143     H      0.243360000000     0.775610000000     0.122480000000     0.0398177  
H144     H      0.280550000000     0.769180000000     0.261790000000     0.0389826  
H145     H      0.270510000000     0.808900000000     0.289610000000     0.0574809  
H146     H      0.300110000000     0.751230000000     0.201750000000     0.0404349  
H147     H      0.204130000000     0.781250000000     0.246280000000     0.0624973  
H148     H      0.278970000000     0.779710000000     0.078730000000     0.0544271  
H149     H      0.293640000000     0.718010000000     0.153500000000     0.0548276  
H150     H      0.224140000000     0.794090000000     0.182320000000     0.037785   
H151     H      0.311690000000     0.699090000000     0.093470000000     0.032686   
H152     H      0.167420000000     0.815140000000     0.309750000000     0.0962806  
H153     H      0.168880000000     0.789080000000     0.278660000000     0.0758183  
H154     H      0.171810000000     0.786140000000     0.333740000000     0.097633   
H155     H      0.605510000000     0.656830000000     0.931020000000     0.0319399  
H156     H      0.412440000000     0.696340000000     0.010740000000     0.0320574  
H157     H      0.532240000000     0.682290000000     0.891260000000     0.0394969  
H158     H      0.489950000000     0.720910000000     0.008490000000     0.0384536  
H159     H      0.455030000000     0.696290000000     0.013140000000     0.0573858  
H160     H      0.532970000000     0.717040000000     0.011060000000     0.0402253  
H161     H      0.457770000000     0.713870000000     0.883310000000     0.0621591  
H162     H      0.562790000000     0.661040000000     0.927840000000     0.0544217  
H163     H      0.569030000000     0.731450000000     0.979040000000     0.0539423  
H164     H      0.489190000000     0.685190000000     0.889590000000     0.0379247  
H165     H      0.611710000000     0.726390000000     0.982670000000     0.0315699  
H166     H      0.397940000000     0.730750000000     0.873920000000     0.097422   
H167     H      0.424390000000     0.723680000000     0.846350000000     0.0758376  
H168     H      0.403010000000     0.700740000000     0.854630000000     0.0968882  
H169     H      0.238890000000     0.190920000000     0.603030000000     0.0308964  
H170     H      0.276350000000     0.301430000000     0.896150000000     0.0312874  
H171     H      0.288760000000     0.236310000000     0.681940000000     0.0395064  
H172     H      0.243450000000     0.293840000000     0.767500000000     0.0381296  
H173     H      0.257940000000     0.282880000000     0.837100000000     0.0569362  
H174     H      0.224580000000     0.275550000000     0.707250000000     0.0399618  
H175     H      0.321520000000     0.292770000000     0.765750000000     0.0618799  
H176     H      0.257230000000     0.208280000000     0.664120000000     0.0541063  
H177     H      0.227350000000     0.276070000000     0.631190000000     0.0542495  
H178     H      0.307370000000     0.254030000000     0.742940000000     0.0375566  
H179     H      0.209000000000     0.258050000000     0.570680000000     0.0319565  
H180     H      0.359500000000     0.304300000000     0.847520000000     0.0961776  
H181     H      0.355350000000     0.308500000000     0.793120000000     0.0750603  
H182     H      0.349270000000     0.332730000000     0.827180000000     0.0951782  
H183     H      0.337430000000     0.290280000000     0.097550000000     0.0323253  
H184     H      0.195510000000     0.246430000000     0.357780000000     0.03075    
H185     H      0.308730000000     0.281850000000     0.230210000000     0.0399022  
H186     H      0.224140000000     0.257870000000     0.226910000000     0.0381776  
H187     H      0.212640000000     0.266080000000     0.298610000000     0.0565724  
H188     H      0.241640000000     0.276930000000     0.166140000000     0.040097   
H189     H      0.275900000000     0.224550000000     0.311710000000     0.0620062  
H190     H      0.320200000000     0.272190000000     0.158970000000     0.0542663  
H191     H      0.257500000000     0.314960000000     0.142690000000     0.0544559  
H192     H      0.291220000000     0.262840000000     0.291030000000     0.0377198  
H193     H      0.275140000000     0.332440000000     0.080970000000     0.03185    
H194     H      0.254210000000     0.181960000000     0.377130000000     0.0977988  
H195     H      0.280770000000     0.196990000000     0.362750000000     0.0755703  
H196     H      0.267010000000     0.204660000000     0.410860000000     0.0963079  
H197     H      0.419370000000     0.371980000000     0.972660000000     0.0315096  
H198     H      0.611210000000     0.321440000000     0.039480000000     0.0317045  
H199     H      0.493550000000     0.353320000000     0.926300000000     0.0394617  
H200     H      0.533240000000     0.297560000000     0.023000000000     0.0384429  
H201     H      0.568520000000     0.321790000000     0.040620000000     0.0573558  
H202     H      0.490040000000     0.301150000000     0.024350000000     0.0401572  
H203     H      0.567250000000     0.320990000000     0.907180000000     0.0622481  
H204     H      0.462200000000     0.368250000000     0.972660000000     0.0543571  
H205     H      0.455060000000     0.292300000000     0.980290000000     0.0541293  
H206     H      0.536640000000     0.350170000000     0.925680000000     0.0379985  
H207     H      0.412180000000     0.296680000000     0.980590000000     0.0316327  
H208     H      0.626520000000     0.304270000000     0.892580000000     0.0973027  
H209     H      0.600820000000     0.315950000000     0.868030000000     0.0755186  
H210     H      0.622890000000     0.336210000000     0.886080000000     0.0968074  
H211     H      0.293340000000     0.618040000000     0.974090000000     0.031435   
H212     H      0.342520000000     0.422770000000     0.026680000000     0.0324364  
H213     H      0.287400000000     0.539210000000     0.934680000000     0.039296   
H214     H      0.359600000000     0.496300000000     0.980210000000     0.0389611  
H215     H      0.340800000000     0.465310000000     0.023600000000     0.0576015  
H216     H      0.360530000000     0.539330000000     0.974360000000     0.0404924  
H217     H      0.303980000000     0.461300000000     0.907090000000     0.0621727  
H218     H      0.290800000000     0.575140000000     0.978750000000     0.0544312  
H219     H      0.359220000000     0.569620000000     0.919380000000     0.0542642  
H220     H      0.286300000000     0.496090000000     0.941530000000     0.0375043  
H221     H      0.361290000000     0.612460000000     0.915570000000     0.0310721  
H222     H      0.288240000000     0.401120000000     0.914390000000     0.0957244  
H223     H      0.290130000000     0.426080000000     0.880800000000     0.0752319  
H224     H      0.314160000000     0.405410000000     0.881110000000     0.0951027  
N1       N      0.195380000000     0.116520000000     0.475560000000    -0.195624   
N2       N      0.198490000000     0.915500000000     0.445650000000    -0.180534   
N3       N      0.909990000000     0.820170000000     0.450420000000    -0.195289   
N4       N      0.111710000000     0.831150000000     0.449800000000    -0.180655   
N5       N      0.829670000000     0.107740000000     0.480630000000    -0.195362   
N6       N      0.830690000000     0.905440000000     0.474500000000    -0.18057    
N7       N      0.115800000000     0.200050000000     0.467310000000    -0.195394   
N8       N      0.913720000000     0.192240000000     0.480110000000    -0.180799   
N9       N      0.716280000000     0.718020000000     0.859390000000    -0.195037   
N10      N      0.802410000000     0.799880000000     0.571450000000    -0.180488   
N11      N      0.802370000000     0.800000000000     0.356940000000    -0.195518   
N12      N      0.718540000000     0.711420000000     0.073780000000    -0.180619   
N13      N      0.811050000000     0.219780000000     0.584020000000    -0.19569    
N14      N      0.724260000000     0.301380000000     0.871500000000    -0.181012   
N15      N      0.801660000000     0.209910000000     0.371880000000    -0.195385   
N16      N      0.717800000000     0.296580000000     0.086530000000    -0.180922   
N17      N      0.698160000000     0.405480000000     0.975960000000    -0.195258   
N18      N      0.696040000000     0.607600000000     0.967720000000    -0.180321   
N19      N      0.298930000000     0.720940000000     0.839130000000    -0.195236   
N20      N      0.215520000000     0.807000000000     0.553090000000    -0.180612   
N21      N      0.216080000000     0.813010000000     0.333780000000    -0.195297   
N22      N      0.305510000000     0.728210000000     0.052000000000    -0.180704   
N23      N      0.409840000000     0.704320000000     0.945440000000    -0.195416   
N24      N      0.611680000000     0.691270000000     0.957140000000    -0.180517   
N25      N      0.309870000000     0.308030000000     0.866170000000    -0.195838   
N26      N      0.222650000000     0.223220000000     0.582460000000    -0.181153   
N27      N      0.225570000000     0.224050000000     0.370250000000    -0.19535    
N28      N      0.307510000000     0.312590000000     0.084770000000    -0.180538   
N29      N      0.614540000000     0.321630000000     0.972760000000    -0.195376   
N30      N      0.412690000000     0.334610000000     0.976500000000    -0.180573   
N31      N      0.324550000000     0.416790000000     0.968570000000    -0.195442   
N32      N      0.327570000000     0.618340000000     0.944880000000    -0.181      
O1       O      0.337520000000     0.316370000000     0.036410000000    -0.250936   
O2       O      0.339430000000     0.328000000000     0.902270000000    -0.26234    
O3       O      0.374770000000     0.319210000000     0.977130000000    -0.247935   
O4       O      0.337360000000     0.382960000000     0.002420000000    -0.249674   
O5       O      0.322850000000     0.378680000000     0.941470000000    -0.262362   
O6       O      0.378570000000     0.357060000000     0.974500000000    -0.252048   
O7       O      0.306390000000     0.337700000000     0.028190000000    -0.25173    
O8       O      0.307210000000     0.320580000000     0.934600000000    -0.25516    
O9       O      0.323270000000     0.696260000000     0.019830000000    -0.249303   
O10      O      0.328710000000     0.721560000000     0.888530000000    -0.250535   
O11      O      0.313610000000     0.655880000000     0.959450000000    -0.24974    
O12      O      0.374000000000     0.698210000000     0.978930000000    -0.253264   
O13      O      0.373280000000     0.701640000000     0.912730000000    -0.255947   
O14      O      0.347440000000     0.652880000000     0.929170000000    -0.255842   
O15      O      0.316400000000     0.727120000000     0.982830000000    -0.255386   
O16      O      0.303450000000     0.693440000000     0.892420000000    -0.261624   
O17      O      0.695530000000     0.300800000000     0.922570000000    -0.251159   
O18      O      0.703880000000     0.329260000000     0.051090000000    -0.253143   
O19      O      0.651650000000     0.326310000000     0.942540000000    -0.256618   
O20      O      0.676180000000     0.371100000000     0.969540000000    -0.255156   
O21      O      0.712810000000     0.367260000000     0.984880000000    -0.25475    
O22      O      0.650030000000     0.323660000000     0.008830000000    -0.25299    
O23      O      0.720450000000     0.329530000000     0.923200000000    -0.254807   
O24      O      0.704290000000     0.295980000000     0.018850000000    -0.254427   
O25      O      0.693520000000     0.643340000000     0.933280000000    -0.247534   
O26      O      0.649150000000     0.704480000000     0.974150000000    -0.247686   
O27      O      0.716070000000     0.688370000000     0.909130000000    -0.248468   
O28      O      0.720360000000     0.696790000000     0.006800000000    -0.254056   
O29      O      0.686330000000     0.697780000000     0.036740000000    -0.249162   
O30      O      0.687990000000     0.713670000000     0.911490000000    -0.261973   
O31      O      0.690320000000     0.643710000000     0.999910000000    -0.252655   
O32      O      0.646020000000     0.669800000000     0.947170000000    -0.25337    
O33      O      0.830730000000     0.144820000000     0.511840000000    -0.256658   
O34      O      0.875940000000     0.204380000000     0.462640000000    -0.248623   
O35      O      0.811090000000     0.189180000000     0.536170000000    -0.252715   
O36      O      0.803280000000     0.196390000000     0.440080000000    -0.264191   
O37      O      0.835550000000     0.196870000000     0.405370000000    -0.250366   
O38      O      0.838090000000     0.215420000000     0.529800000000    -0.262774   
O39      O      0.836790000000     0.143110000000     0.446270000000    -0.254877   
O40      O      0.879570000000     0.171820000000     0.496580000000    -0.255596   
O41      O      0.875620000000     0.822020000000     0.489710000000    -0.247688   
O42      O      0.815420000000     0.868980000000     0.456150000000    -0.248323   
O43      O      0.830950000000     0.800490000000     0.520010000000    -0.24879    
O44      O      0.820930000000     0.797170000000     0.420980000000    -0.255236   
O45      O      0.815440000000     0.831870000000     0.396490000000    -0.258151   
O46      O      0.805120000000     0.828380000000     0.520240000000    -0.25473    
O47      O      0.872240000000     0.826890000000     0.424050000000    -0.26321    
O48      O      0.849710000000     0.869790000000     0.485080000000    -0.253876   
O49      O      0.150010000000     0.816610000000     0.448470000000    -0.250958   
O50      O      0.204420000000     0.878120000000     0.472900000000    -0.250813   
O51      O      0.185020000000     0.818960000000     0.380210000000    -0.259698   
O52      O      0.213590000000     0.813710000000     0.482430000000    -0.252756   
O53      O      0.189410000000     0.832860000000     0.521630000000    -0.251581   
O54      O      0.218530000000     0.834380000000     0.395100000000    -0.251924   
O55      O      0.145280000000     0.854360000000     0.449380000000    -0.251167   
O56      O      0.183440000000     0.881130000000     0.417440000000    -0.25078    
O57      O      0.207330000000     0.153550000000     0.452730000000    -0.252297   
O58      O      0.151830000000     0.204590000000     0.500840000000    -0.251532   
O59      O      0.224350000000     0.198180000000     0.426450000000    -0.258549   
O60      O      0.214790000000     0.191510000000     0.539380000000    -0.256169   
O61      O      0.200080000000     0.225240000000     0.522780000000    -0.2527     
O62      O      0.193670000000     0.219280000000     0.414870000000    -0.254094   
O63      O      0.180100000000     0.152360000000     0.498930000000    -0.261825   
O64      O      0.152430000000     0.189300000000     0.439960000000    -0.260699   


