data_structure

_audit_creation_method RASPA-1.0
_audit_creation_date 2023-6-5
_audit_author_name 'Poobodin Mano'

_cell_length_a    57.1781
_cell_length_b    56.9437
_cell_length_c    31.5962
_cell_angle_alpha 90.0325
_cell_angle_beta  89.9166
_cell_angle_gamma 89.9999
_cell_volume      102875

_symmetry_cell_setting          triclinic
_symmetry_space_group_name_Hall 'P 1'
_symmetry_space_group_name_H-M  'P 1'
_symmetry_Int_Tables_number     1

_symmetry_equiv_pos_as_xyz 'x,y,z'

loop_
_atom_site_label
_atom_site_type_symbol
_atom_site_fract_x
_atom_site_fract_y
_atom_site_fract_z
_atom_site_charge
C1       C      0.385740000000     0.326570000000     0.975050000000     0.346232   
C2       C      0.314020000000     0.307130000000     0.041630000000     0.344624   
C3       C      0.329840000000     0.379540000000     0.958880000000     0.344968   
C4       C      0.313530000000     0.303990000000     0.898930000000     0.345583   
C5       C      0.322800000000     0.628150000000     0.951950000000     0.347449   
C6       C      0.303500000000     0.700770000000     0.025440000000     0.347228   
C7       C      0.377470000000     0.683950000000     0.956990000000     0.346636   
C8       C      0.305720000000     0.700260000000     0.881230000000     0.345943   
C9       C      0.633030000000     0.327080000000     0.998480000000     0.345662   
C10      C      0.708160000000     0.314460000000     0.920450000000     0.344912   
C11      C      0.687780000000     0.384080000000     0.986910000000     0.344991   
C12      C      0.702800000000     0.310060000000     0.066180000000     0.346295   
C13      C      0.678790000000     0.632720000000     0.972560000000     0.346901   
C14      C      0.697770000000     0.706120000000     0.897110000000     0.346842   
C15      C      0.625190000000     0.689200000000     0.965410000000     0.34495    
C16      C      0.698650000000     0.703810000000     0.041210000000     0.344861   
C17      C      0.813710000000     0.203920000000     0.566470000000     0.346718   
C18      C      0.824630000000     0.130740000000     0.495300000000     0.347647   
C19      C      0.812280000000     0.200840000000     0.416900000000     0.347802   
C20      C      0.883500000000     0.185130000000     0.492110000000     0.346713   
C21      C      0.879760000000     0.827680000000     0.467300000000     0.345599   
C22      C      0.807500000000     0.808830000000     0.539860000000     0.343879   
C23      C      0.824840000000     0.882570000000     0.473930000000     0.346662   
C24      C      0.805850000000     0.810760000000     0.396580000000     0.346474   
C25      C      0.199490000000     0.812100000000     0.380240000000     0.345869   
C26      C      0.127550000000     0.828110000000     0.467920000000     0.345469   
C27      C      0.197340000000     0.807420000000     0.527140000000     0.344856   
C28      C      0.182470000000     0.882380000000     0.444610000000     0.345413   
C29      C      0.202960000000     0.203910000000     0.397170000000     0.345522   
C30      C      0.183960000000     0.130530000000     0.466080000000     0.346514   
C31      C      0.202930000000     0.201330000000     0.542750000000     0.347758   
C32      C      0.130530000000     0.187380000000     0.464580000000     0.346626   
C33      C      0.171590000000     0.944640000000     0.415240000000    -0.0987566  
C34      C      0.200240000000     0.095680000000     0.436740000000     0.0724768  
C35      C      0.170620000000     0.093120000000     0.489180000000     0.0724516  
C36      C      0.201140000000     0.071220000000     0.433670000000    -0.0888056  
C37      C      0.207490000000     0.018930000000     0.453410000000    -0.0342407  
C38      C      0.207480000000     0.994430000000     0.450090000000    -0.033197   
C39      C      0.186310000000     0.031450000000     0.454640000000    -0.00437921 
C40      C      0.170900000000     0.068640000000     0.486590000000    -0.0889934  
C41      C      0.186290000000     0.982010000000     0.447390000000    -0.00648037 
C42      C      0.200030000000     0.942400000000     0.470820000000    -0.0910329  
C43      C      0.165130000000     0.994560000000     0.448290000000    -0.0330915  
C44      C      0.198640000000     0.917980000000     0.469200000000     0.0716018  
C45      C      0.170600000000     0.920000000000     0.413680000000     0.0983249  
C46      C      0.165140000000     0.019000000000     0.452070000000    -0.0342108  
C47      C      0.186210000000     0.057420000000     0.458490000000     0.0501599  
C48      C      0.186120000000     0.956010000000     0.444240000000     0.0546212  
C49      C      0.066000000000     0.839830000000     0.499770000000    -0.0980512  
C50      C      0.916530000000     0.835810000000     0.435250000000     0.0722893  
C51      C      0.914930000000     0.814870000000     0.500010000000     0.0723789  
C52      C      0.940940000000     0.834920000000     0.435560000000    -0.0884351  
C53      C      0.991810000000     0.820190000000     0.432920000000    -0.0341544  
C54      C      0.016240000000     0.820280000000     0.434060000000    -0.0328755  
C55      C      0.978700000000     0.823120000000     0.470240000000    -0.00389428 
C56      C      0.939310000000     0.813510000000     0.501190000000    -0.0884185  
C57      C      0.028200000000     0.823190000000     0.472570000000    -0.00603908 
C58      C      0.067480000000     0.809310000000     0.447520000000    -0.0907028  
C59      C      0.015100000000     0.825780000000     0.509980000000    -0.0330609  
C60      C      0.091790000000     0.811000000000     0.447280000000     0.0717143  
C61      C      0.090550000000     0.841190000000     0.499360000000     0.0983347  
C62      C      0.990660000000     0.825820000000     0.508810000000    -0.0341232  
C63      C      0.952680000000     0.823760000000     0.468890000000     0.0497886  
C64      C      0.054230000000     0.824000000000     0.473500000000     0.0543369  
C65      C      0.821860000000     0.068380000000     0.529660000000    -0.0982951  
C66      C      0.819050000000     0.919420000000     0.440240000000     0.0726512  
C67      C      0.825080000000     0.917790000000     0.514420000000     0.0724451  
C68      C      0.817540000000     0.943870000000     0.441810000000    -0.0887512  
C69      C      0.830330000000     0.995320000000     0.451720000000    -0.0342862  
C70      C      0.829970000000     0.019810000000     0.454120000000    -0.0328709  
C71      C      0.819010000000     0.981650000000     0.482620000000    -0.00409231 
C72      C      0.823610000000     0.942230000000     0.517150000000    -0.0886317  
C73      C      0.818270000000     0.031230000000     0.487440000000    -0.00629223 
C74      C      0.816190000000     0.071230000000     0.454640000000    -0.091167   
C75      C      0.806740000000     0.017570000000     0.518100000000    -0.0330501  
C76      C      0.817680000000     0.095590000000     0.457830000000     0.0717784  
C77      C      0.823220000000     0.092980000000     0.532320000000     0.0985916  
C78      C      0.807130000000     0.993060000000     0.515750000000    -0.0342863  
C79      C      0.819930000000     0.955600000000     0.480540000000     0.049997   
C80      C      0.818620000000     0.057290000000     0.490640000000     0.0545146  
C81      C      0.068420000000     0.186680000000     0.429950000000    -0.0986041  
C82      C      0.918120000000     0.207930000000     0.483750000000     0.0727296  
C83      C      0.920780000000     0.166810000000     0.494620000000     0.0726144  
C84      C      0.942460000000     0.209560000000     0.480470000000    -0.0885951  
C85      C      0.995030000000     0.208500000000     0.498240000000    -0.0341823  
C86      C      0.019400000000     0.209100000000     0.494500000000    -0.0330064  
C87      C      0.982060000000     0.190410000000     0.479140000000    -0.00416943 
C88      C      0.945090000000     0.167790000000     0.491360000000    -0.0888287  
C89      C      0.031310000000     0.191700000000     0.471360000000    -0.00642038 
C90      C      0.070990000000     0.196580000000     0.503580000000    -0.0911139  
C91      C      0.018290000000     0.173780000000     0.451860000000    -0.0329659  
C92      C      0.095280000000     0.195410000000     0.500690000000     0.0717412  
C93      C      0.092940000000     0.185690000000     0.427540000000     0.0983425  
C94      C      0.993980000000     0.173130000000     0.455730000000    -0.0341716  
C95      C      0.956230000000     0.189300000000     0.483860000000     0.0501313  
C96      C      0.057240000000     0.191840000000     0.468200000000     0.0545394  
C97      C      0.794050000000     0.767510000000     0.627690000000    -0.0984071  
C98      C      0.698590000000     0.736190000000     0.844860000000     0.0722471  
C99      C      0.728650000000     0.707530000000     0.846820000000     0.0724019  
C100     C      0.709110000000     0.746990000000     0.809990000000    -0.0884919  
C101     C      0.727860000000     0.757740000000     0.722050000000    -0.0341146  
C102     C      0.738700000000     0.767640000000     0.686600000000    -0.0330706  
C103     C      0.741300000000     0.748890000000     0.755720000000    -0.00400302 
C104     C      0.739570000000     0.717810000000     0.811930000000    -0.0886097  
C105     C      0.763210000000     0.768780000000     0.683930000000    -0.00637381 
C106     C      0.766810000000     0.799530000000     0.627700000000    -0.0910575  
C107     C      0.776630000000     0.760150000000     0.717720000000    -0.0330897  
C108     C      0.778160000000     0.808850000000     0.592440000000     0.071288   
C109     C      0.805220000000     0.777050000000     0.592000000000     0.0977091  
C110     C      0.765820000000     0.750380000000     0.753230000000    -0.0342068  
C111     C      0.729860000000     0.737810000000     0.793030000000     0.0499042  
C112     C      0.774800000000     0.778750000000     0.645900000000     0.0545434  
C113     C      0.762980000000     0.796650000000     0.311930000000    -0.0982174  
C114     C      0.729820000000     0.704320000000     0.091040000000     0.0721377  
C115     C      0.699490000000     0.732630000000     0.095580000000     0.0724039  
C116     C      0.740820000000     0.714050000000     0.126430000000    -0.0885333  
C117     C      0.766400000000     0.747600000000     0.186020000000    -0.0343274  
C118     C      0.776820000000     0.758280000000     0.221110000000    -0.032768   
C119     C      0.742090000000     0.743970000000     0.184840000000    -0.00403149 
C120     C      0.709940000000     0.742690000000     0.131120000000    -0.0886297  
C121     C      0.763180000000     0.765490000000     0.255860000000    -0.0062629  
C122     C      0.795650000000     0.770320000000     0.308490000000    -0.090729   
C123     C      0.738930000000     0.761440000000     0.254910000000    -0.0329608  
C124     C      0.805600000000     0.781920000000     0.342920000000     0.0712868  
C125     C      0.773230000000     0.808120000000     0.346620000000     0.0980465  
C126     C      0.728510000000     0.750860000000     0.219800000000    -0.0342836  
C127     C      0.730830000000     0.733410000000     0.147020000000     0.0499716  
C128     C      0.774080000000     0.777570000000     0.292640000000     0.0543958  
C129     C      0.752040000000     0.302490000000     0.836030000000    -0.0980867  
C130     C      0.783460000000     0.207060000000     0.617770000000     0.0727622  
C131     C      0.815490000000     0.233490000000     0.619630000000     0.0722242  
C132     C      0.773480000000     0.217940000000     0.653030000000    -0.0887377  
C133     C      0.763640000000     0.235640000000     0.741780000000    -0.0343228  
C134     C      0.753270000000     0.246730000000     0.776510000000    -0.0329488  
C135     C      0.774190000000     0.248910000000     0.709460000000    -0.00402539 
C136     C      0.805960000000     0.244840000000     0.654900000000    -0.0885199  
C137     C      0.753180000000     0.271350000000     0.779750000000    -0.00625207 
C138     C      0.720360000000     0.274990000000     0.831850000000    -0.0910414  
C139     C      0.763910000000     0.284620000000     0.747620000000    -0.0329688  
C140     C      0.709830000000     0.286020000000     0.866300000000     0.0715036  
C141     C      0.741160000000     0.313430000000     0.870790000000     0.0977183  
C142     C      0.774320000000     0.273530000000     0.712890000000    -0.0342248  
C143     C      0.784710000000     0.237080000000     0.672060000000     0.0499938  
C144     C      0.741720000000     0.283100000000     0.816350000000     0.0543494  
C145     C      0.802610000000     0.224860000000     0.308860000000    -0.098306   
C146     C      0.720700000000     0.311960000000     0.133960000000     0.0727136  
C147     C      0.714180000000     0.275000000000     0.101440000000     0.0724338  
C148     C      0.731050000000     0.301050000000     0.168790000000    -0.0883085  
C149     C      0.740590000000     0.272520000000     0.248020000000    -0.0341151  
C150     C      0.751680000000     0.261650000000     0.282180000000    -0.0328714  
C151     C      0.744520000000     0.264660000000     0.206420000000    -0.00391533 
C152     C      0.724420000000     0.263510000000     0.135790000000    -0.0884893  
C153     C      0.766970000000     0.242660000000     0.275560000000    -0.00623992 
C154     C      0.767350000000     0.227250000000     0.349810000000    -0.0910865  
C155     C      0.770760000000     0.234680000000     0.233990000000    -0.0329557  
C156     C      0.779030000000     0.216960000000     0.383750000000     0.0714134  
C157     C      0.814130000000     0.214480000000     0.343390000000     0.0982534  
C158     C      0.759670000000     0.245550000000     0.199830000000    -0.0341262  
C159     C      0.733110000000     0.276530000000     0.169970000000     0.0499763  
C160     C      0.779100000000     0.231380000000     0.311850000000     0.0545098  
C161     C      0.706770000000     0.446100000000     0.000310000000    -0.0977927  
C162     C      0.687820000000     0.596420000000     0.939210000000     0.072645   
C163     C      0.674490000000     0.596830000000     0.010290000000     0.0725365  
C164     C      0.689450000000     0.571970000000     0.939990000000    -0.0886407  
C165     C      0.677930000000     0.520090000000     0.942540000000    -0.0342273  
C166     C      0.679150000000     0.495600000000     0.943560000000    -0.0329662  
C167     C      0.684730000000     0.533500000000     0.977840000000    -0.00417583 
C168     C      0.675850000000     0.572350000000     0.012140000000    -0.0884232  
C169     C      0.687120000000     0.483880000000     0.979940000000    -0.0063334  
C170     C      0.670190000000     0.444370000000     0.963410000000    -0.0909756  
C171     C      0.693950000000     0.497280000000     0.015220000000    -0.0328479  
C172     C      0.671050000000     0.419950000000     0.965350000000     0.0714503  
C173     C      0.707360000000     0.421430000000     0.002010000000     0.0979397  
C174     C      0.692790000000     0.521790000000     0.014170000000    -0.0339677  
C175     C      0.683370000000     0.559580000000     0.976690000000     0.0497522  
C176     C      0.688050000000     0.457780000000     0.981230000000     0.0542347  
C177     C      0.213250000000     0.762120000000     0.606880000000    -0.0982128  
C178     C      0.299940000000     0.733550000000     0.837030000000     0.0723763  
C179     C      0.280360000000     0.697830000000     0.821820000000     0.0724817  
C180     C      0.289420000000     0.744310000000     0.802190000000    -0.0885274  
C181     C      0.253980000000     0.765810000000     0.741950000000    -0.0341608  
C182     C      0.243080000000     0.776240000000     0.707140000000    -0.0330053  
C183     C      0.262560000000     0.742710000000     0.739410000000    -0.00402429 
C184     C      0.269570000000     0.708020000000     0.786720000000    -0.0884935  
C185     C      0.240520000000     0.763830000000     0.668950000000    -0.00616554 
C186     C      0.233220000000     0.798260000000     0.621430000000    -0.090769   
C187     C      0.249160000000     0.740760000000     0.666370000000    -0.0330693  
C188     C      0.222280000000     0.808350000000     0.586510000000     0.0712411  
C189     C      0.202330000000     0.772590000000     0.571790000000     0.0979451  
C190     C      0.260050000000     0.730320000000     0.701180000000    -0.0342088  
C191     C      0.274000000000     0.731550000000     0.776530000000     0.0499087  
C192     C      0.228850000000     0.774890000000     0.631940000000     0.054324   
C193     C      0.258710000000     0.721030000000     0.102800000000    -0.0982969  
C194     C      0.233320000000     0.804540000000     0.338450000000     0.0721578  
C195     C      0.196410000000     0.789890000000     0.316810000000     0.0725085  
C196     C      0.244030000000     0.794270000000     0.303210000000    -0.088356   
C197     C      0.263500000000     0.758810000000     0.240380000000    -0.0340941  
C198     C      0.273590000000     0.747570000000     0.205480000000    -0.0330351  
C199     C      0.241700000000     0.770050000000     0.236770000000    -0.00396352 
C200     C      0.206530000000     0.779400000000     0.281310000000    -0.0883656  
C201     C      0.262080000000     0.747290000000     0.166200000000    -0.00622251 
C202     C      0.296330000000     0.736850000000     0.120400000000    -0.0909652  
C203     C      0.240400000000     0.758720000000     0.162470000000    -0.0330839  
C204     C      0.305850000000     0.725210000000     0.085590000000     0.0713787  
C205     C      0.268600000000     0.709340000000     0.067910000000     0.0980009  
C206     C      0.230340000000     0.769990000000     0.197310000000    -0.0341759  
C207     C      0.230640000000     0.781450000000     0.274140000000     0.0498573  
C208     C      0.272530000000     0.734920000000     0.129310000000     0.0544332  
C209     C      0.563930000000     0.706130000000     0.990220000000    -0.0982964  
C210     C      0.412850000000     0.699060000000     0.928070000000     0.0722665  
C211     C      0.413960000000     0.674440000000     0.988520000000     0.0722544  
C212     C      0.437220000000     0.700860000000     0.928230000000    -0.0884497  
C213     C      0.489120000000     0.690100000000     0.921430000000    -0.0342333  
C214     C      0.513560000000     0.690860000000     0.921910000000    -0.0330338  
C215     C      0.476310000000     0.690410000000     0.959480000000    -0.00399597 
C216     C      0.438330000000     0.675760000000     0.989490000000    -0.0888726  
C217     C      0.525800000000     0.691870000000     0.960440000000    -0.00615609 
C218     C      0.564770000000     0.678400000000     0.933070000000    -0.0909125  
C219     C      0.512980000000     0.692310000000     0.998450000000    -0.0331786  
C220     C      0.589130000000     0.678360000000     0.934970000000     0.07143    
C221     C      0.588490000000     0.705830000000     0.991760000000     0.097818   
C222     C      0.488560000000     0.691650000000     0.997970000000    -0.0343472  
C223     C      0.450310000000     0.689060000000     0.959090000000     0.0498259  
C224     C      0.551830000000     0.692180000000     0.961140000000     0.0542303  
C225     C      0.298240000000     0.259730000000     0.816880000000    -0.0982401  
C226     C      0.208760000000     0.233640000000     0.589230000000     0.072351   
C227     C      0.228890000000     0.197850000000     0.601150000000     0.0723132  
C228     C      0.219420000000     0.243720000000     0.624580000000    -0.0884236  
C229     C      0.254410000000     0.264730000000     0.685650000000    -0.0340789  
C230     C      0.265320000000     0.274670000000     0.720910000000    -0.0329995  
C231     C      0.247000000000     0.241180000000     0.686280000000    -0.00395601 
C232     C      0.239940000000     0.207420000000     0.636590000000    -0.0882798  
C233     C      0.269200000000     0.261280000000     0.757560000000    -0.00626814 
C234     C      0.274590000000     0.294240000000     0.808960000000    -0.0911697  
C235     C      0.261890000000     0.237720000000     0.758220000000    -0.0331173  
C236     C      0.285710000000     0.304070000000     0.843930000000     0.0716746  
C237     C      0.309360000000     0.269960000000     0.852000000000     0.0978835  
C238     C      0.250860000000     0.227800000000     0.723040000000    -0.034057   
C239     C      0.235300000000     0.230630000000     0.648750000000     0.0498238  
C240     C      0.280830000000     0.271880000000     0.794970000000     0.0545508  
C241     C      0.302440000000     0.268470000000     0.134120000000    -0.0981652  
C242     C      0.202270000000     0.232010000000     0.341470000000     0.0724671  
C243     C      0.235070000000     0.206960000000     0.349700000000     0.0725026  
C244     C      0.212580000000     0.242540000000     0.306130000000    -0.0885524  
C245     C      0.245040000000     0.270100000000     0.247680000000    -0.0342189  
C246     C      0.256080000000     0.280140000000     0.212540000000    -0.0329802  
C247     C      0.245780000000     0.245700000000     0.254250000000    -0.00402831 
C248     C      0.245850000000     0.217040000000     0.314460000000    -0.0887044  
C249     C      0.268060000000     0.265980000000     0.183180000000    -0.00615965 
C250     C      0.270400000000     0.294990000000     0.123590000000    -0.0906979  
C251     C      0.268480000000     0.241540000000     0.189470000000    -0.0330728  
C252     C      0.282220000000     0.304660000000     0.089130000000     0.0711466  
C253     C      0.314130000000     0.278410000000     0.099340000000     0.0978482  
C254     C      0.257500000000     0.231530000000     0.224600000000    -0.0341966  
C255     C      0.234590000000     0.235000000000     0.292090000000     0.0500176  
C256     C      0.280410000000     0.276620000000     0.146430000000     0.0543251  
C257     C      0.571160000000     0.327110000000     0.034950000000    -0.0982242  
C258     C      0.422970000000     0.319290000000     0.944030000000     0.0727007  
C259     C      0.420300000000     0.330560000000     0.016120000000     0.0727742  
C260     C      0.447340000000     0.318350000000     0.946810000000    -0.0883214  
C261     C      0.497550000000     0.305640000000     0.967960000000    -0.0340664  
C262     C      0.521950000000     0.305410000000     0.970760000000    -0.0331357  
C263     C      0.484420000000     0.323160000000     0.988560000000    -0.00417633 
C264     C      0.444600000000     0.329720000000     0.020060000000    -0.0884154  
C265     C      0.533780000000     0.322630000000     0.994370000000    -0.00637358 
C266     C      0.573210000000     0.318860000000     0.960590000000    -0.0909712  
C267     C      0.520680000000     0.340040000000     0.015180000000    -0.0330365  
C268     C      0.597510000000     0.320020000000     0.962840000000     0.0714744  
C269     C      0.595710000000     0.328070000000     0.036720000000     0.0981249  
C270     C      0.496300000000     0.340330000000     0.012250000000    -0.0339342  
C271     C      0.458480000000     0.323660000000     0.985130000000     0.0498823  
C272     C      0.559720000000     0.322740000000     0.996710000000     0.054246   
C273     C      0.331380000000     0.440550000000     0.917090000000    -0.098506   
C274     C      0.313950000000     0.592020000000     0.986210000000     0.0725086  
C275     C      0.328410000000     0.591960000000     0.915840000000     0.0725528  
C276     C      0.313550000000     0.567490000000     0.986610000000    -0.088648   
C277     C      0.303600000000     0.515730000000     0.970570000000    -0.0342422  
C278     C      0.304410000000     0.491180000000     0.971130000000    -0.0330534  
C279     C      0.321590000000     0.528760000000     0.951300000000    -0.00408493 
C280     C      0.328220000000     0.567440000000     0.915140000000    -0.0887927  
C281     C      0.323210000000     0.479110000000     0.952370000000    -0.00636899 
C282     C      0.318290000000     0.440460000000     0.989230000000    -0.0910509  
C283     C      0.341200000000     0.492150000000     0.933150000000    -0.0331014  
C284     C      0.320080000000     0.416040000000     0.989600000000     0.0711195  
C285     C      0.332990000000     0.415930000000     0.917940000000     0.0980321  
C286     C      0.340410000000     0.516660000000     0.932640000000    -0.0342436  
C287     C      0.320950000000     0.554870000000     0.950930000000     0.0500234  
C288     C      0.324220000000     0.453030000000     0.952910000000     0.0544268  
Cd1      Cd     0.335410000000     0.329180000000     0.968380000000     0.510574   
Cd2      Cd     0.327170000000     0.678670000000     0.954340000000     0.509537   
Cd3      Cd     0.683270000000     0.333460000000     0.993040000000     0.510119   
Cd4      Cd     0.675550000000     0.683290000000     0.968590000000     0.509012   
Cd5      Cd     0.833120000000     0.180870000000     0.492680000000     0.509625   
Cd6      Cd     0.829360000000     0.832130000000     0.468450000000     0.50982    
Cd7      Cd     0.177600000000     0.831990000000     0.454850000000     0.510444   
Cd8      Cd     0.180760000000     0.181220000000     0.468650000000     0.509179   
H1       H      0.158480000000     0.101140000000     0.511250000000     0.0331839  
H2       H      0.209570000000     0.908390000000     0.491260000000     0.0356044  
H3       H      0.148560000000     0.028200000000     0.452550000000     0.0414263  
H4       H      0.224040000000     0.985210000000     0.449250000000     0.0410263  
H5       H      0.211520000000     0.950580000000     0.493750000000     0.0570529  
H6       H      0.224070000000     0.028060000000     0.455600000000     0.0413962  
H7       H      0.161110000000     0.955120000000     0.393720000000     0.0599026  
H8       H      0.159260000000     0.058570000000     0.506680000000     0.0562016  
H9       H      0.213120000000     0.063200000000     0.411340000000     0.056255   
H10      H      0.148530000000     0.985440000000     0.446670000000     0.0414296  
H11      H      0.211880000000     0.105770000000     0.416640000000     0.0338931  
H12      H      0.905260000000     0.806800000000     0.525720000000     0.0341612  
H13      H      0.101020000000     0.799200000000     0.426100000000     0.035902   
H14      H      0.981180000000     0.828380000000     0.538140000000     0.0409572  
H15      H      0.025740000000     0.818490000000     0.404560000000     0.0409414  
H16      H      0.059150000000     0.796430000000     0.427300000000     0.0566988  
H17      H      0.983210000000     0.817750000000     0.402730000000     0.0410153  
H18      H      0.055950000000     0.851540000000     0.519930000000     0.059312   
H19      H      0.947570000000     0.804350000000     0.527200000000     0.0558761  
H20      H      0.950510000000     0.843380000000     0.410200000000     0.0556936  
H21      H      0.023710000000     0.827750000000     0.540280000000     0.0405977  
H22      H      0.908150000000     0.844790000000     0.409090000000     0.0332492  
H23      H      0.828150000000     0.908100000000     0.543410000000     0.0332871  
H24      H      0.815960000000     0.105400000000     0.428580000000     0.0345152  
H25      H      0.797950000000     0.983030000000     0.539690000000     0.0411925  
H26      H      0.839350000000     0.029790000000     0.430360000000     0.0409337  
H27      H      0.813180000000     0.063380000000     0.423890000000     0.0565584  
H28      H      0.839930000000     0.987080000000     0.426150000000     0.0412469  
H29      H      0.823760000000     0.057750000000     0.557980000000     0.059377   
H30      H      0.825800000000     0.950610000000     0.547680000000     0.0558025  
H31      H      0.814370000000     0.953500000000     0.412830000000     0.0560565  
H32      H      0.797250000000     0.025820000000     0.543810000000     0.0406536  
H33      H      0.817140000000     0.911030000000     0.409620000000     0.0340178  
H34      H      0.912870000000     0.149780000000     0.500220000000     0.033563   
H35      H      0.104950000000     0.198850000000     0.529550000000     0.0350519  
H36      H      0.984480000000     0.159110000000     0.440200000000     0.0413263  
H37      H      0.028930000000     0.223240000000     0.509600000000     0.0408686  
H38      H      0.063030000000     0.200570000000     0.533880000000     0.0568041  
H39      H      0.986370000000     0.221980000000     0.516710000000     0.0411962  
H40      H      0.057900000000     0.183600000000     0.401890000000     0.0596595  
H41      H      0.955100000000     0.151760000000     0.494930000000     0.056022   
H42      H      0.950360000000     0.226510000000     0.474400000000     0.0562229  
H43      H      0.026950000000     0.159980000000     0.434170000000     0.0409923  
H44      H      0.908020000000     0.223940000000     0.480400000000     0.033923   
H45      H      0.736720000000     0.692030000000     0.860370000000     0.0339332  
H46      H      0.771190000000     0.825140000000     0.579950000000     0.0350184  
H47      H      0.776700000000     0.744170000000     0.778910000000     0.0410133  
H48      H      0.727900000000     0.773930000000     0.660850000000     0.0410148  
H49      H      0.752020000000     0.808850000000     0.641060000000     0.0567399  
H50      H      0.708960000000     0.756590000000     0.722630000000     0.0411045  
H51      H      0.800200000000     0.751120000000     0.641260000000     0.0596203  
H52      H      0.755360000000     0.709860000000     0.799520000000     0.0558047  
H53      H      0.701140000000     0.762590000000     0.796770000000     0.0557259  
H54      H      0.795550000000     0.761160000000     0.716880000000     0.0411501  
H55      H      0.682580000000     0.743830000000     0.857090000000     0.0331548  
H56      H      0.683340000000     0.740380000000     0.084270000000     0.0346048  
H57      H      0.822320000000     0.775320000000     0.353910000000     0.0347183  
H58      H      0.709790000000     0.747910000000     0.220150000000     0.0414718  
H59      H      0.795510000000     0.761400000000     0.220570000000     0.0408346  
H60      H      0.804770000000     0.755470000000     0.294760000000     0.0564828  
H61      H      0.777300000000     0.742710000000     0.159380000000     0.041322   
H62      H      0.746430000000     0.802840000000     0.299310000000     0.0594004  
H63      H      0.701800000000     0.757840000000     0.145740000000     0.0561767  
H64      H      0.756860000000     0.706220000000     0.137930000000     0.0559566  
H65      H      0.727960000000     0.766330000000     0.281470000000     0.0408667  
H66      H      0.738000000000     0.689260000000     0.076120000000     0.0333294  
H67      H      0.831990000000     0.239970000000     0.607340000000     0.0333776  
H68      H      0.693230000000     0.278820000000     0.876730000000     0.035398   
H69      H      0.782020000000     0.284260000000     0.688250000000     0.0412558  
H70      H      0.745510000000     0.235970000000     0.801060000000     0.0408845  
H71      H      0.711570000000     0.260250000000     0.817150000000     0.0566167  
H72      H      0.763590000000     0.216640000000     0.740460000000     0.0413057  
H73      H      0.768790000000     0.308840000000     0.824550000000     0.0594584  
H74      H      0.815350000000     0.259410000000     0.668910000000     0.0558976  
H75      H      0.756870000000     0.211570000000     0.664880000000     0.0560093  
H76      H      0.763870000000     0.303630000000     0.748870000000     0.0408945  
H77      H      0.774140000000     0.192370000000     0.603910000000     0.0339325  
H78      H      0.707720000000     0.264290000000     0.075600000000     0.0332473  
H79      H      0.768870000000     0.214220000000     0.412340000000     0.0346576  
H80      H      0.763280000000     0.239200000000     0.168180000000     0.0412331  
H81      H      0.748530000000     0.268370000000     0.313750000000     0.0409161  
H82      H      0.749040000000     0.231730000000     0.353320000000     0.0566874  
H83      H      0.728820000000     0.287030000000     0.254260000000     0.0412334  
H84      H      0.812070000000     0.228270000000     0.279680000000     0.0596458  
H85      H      0.725330000000     0.244510000000     0.135640000000     0.0559177  
H86      H      0.737780000000     0.311840000000     0.194250000000     0.0562484  
H87      H      0.782220000000     0.219920000000     0.227830000000     0.0408697  
H88      H      0.719610000000     0.330970000000     0.134140000000     0.0346474  
H89      H      0.668490000000     0.606050000000     0.038320000000     0.0330823  
H90      H      0.656450000000     0.410600000000     0.951380000000     0.0343447  
H91      H      0.698400000000     0.531570000000     0.041750000000     0.0411313  
H92      H      0.673980000000     0.485840000000     0.915660000000     0.0406128  
H93      H      0.655240000000     0.452660000000     0.948630000000     0.0563796  
H94      H      0.671390000000     0.528500000000     0.914200000000     0.0409489  
H95      H      0.721110000000     0.456300000000     0.013310000000     0.0595603  
H96      H      0.670690000000     0.563500000000     0.041010000000     0.0557972  
H97      H      0.695700000000     0.562880000000     0.912050000000     0.0559158  
H98      H      0.699930000000     0.488820000000     0.043920000000     0.0410472  
H99      H      0.692710000000     0.605300000000     0.910160000000     0.0339863  
H100     H      0.276370000000     0.679610000000     0.828720000000     0.0338066  
H101     H      0.226560000000     0.826540000000     0.579910000000     0.035621   
H102     H      0.266790000000     0.712640000000     0.697940000000     0.0412462  
H103     H      0.236320000000     0.793920000000     0.710370000000     0.0409482  
H104     H      0.245370000000     0.808730000000     0.639740000000     0.0566118  
H105     H      0.255320000000     0.775720000000     0.771120000000     0.0411851  
H106     H      0.209350000000     0.744040000000     0.615190000000     0.0595207  
H107     H      0.257550000000     0.697580000000     0.768080000000     0.055936   
H108     H      0.293580000000     0.762450000000     0.795170000000     0.0558687  
H109     H      0.247820000000     0.730850000000     0.637210000000     0.0409859  
H110     H      0.311790000000     0.744020000000     0.856030000000     0.0336704  
H111     H      0.177720000000     0.787740000000     0.321290000000     0.0344721  
H112     H      0.324450000000     0.727530000000     0.080310000000     0.0347516  
H113     H      0.213730000000     0.778840000000     0.193220000000     0.0411781  
H114     H      0.290180000000     0.738680000000     0.209500000000     0.0410511  
H115     H      0.307620000000     0.747620000000     0.139920000000     0.0566088  
H116     H      0.272570000000     0.758220000000     0.270430000000     0.0411862  
H117     H      0.240210000000     0.719100000000     0.109790000000     0.0596031  
H118     H      0.195540000000     0.769380000000     0.260030000000     0.0559618  
H119     H      0.262670000000     0.796570000000     0.298640000000     0.0557117  
H120     H      0.231280000000     0.759160000000     0.132450000000     0.0409924  
H121     H      0.244290000000     0.814300000000     0.360220000000     0.0330341  
H122     H      0.405400000000     0.663830000000     0.012480000000     0.0334443  
H123     H      0.598140000000     0.666960000000     0.912770000000     0.0340592  
H124     H      0.479290000000     0.692230000000     0.027860000000     0.0410887  
H125     H      0.522850000000     0.690760000000     0.892020000000     0.0405391  
H126     H      0.556160000000     0.667180000000     0.910210000000     0.0562672  
H127     H      0.480290000000     0.688890000000     0.891220000000     0.0409104  
H128     H      0.554140000000     0.717540000000     0.011330000000     0.0595331  
H129     H      0.447690000000     0.666050000000     0.013560000000     0.0558565  
H130     H      0.445700000000     0.711620000000     0.904480000000     0.0557595  
H131     H      0.521810000000     0.692800000000     0.028740000000     0.0409715  
H132     H      0.403370000000     0.708410000000     0.903630000000     0.0335936  
H133     H      0.233040000000     0.179860000000     0.592740000000     0.0333033  
H134     H      0.280100000000     0.321550000000     0.853110000000     0.0349524  
H135     H      0.245040000000     0.209730000000     0.724920000000     0.0410788  
H136     H      0.271060000000     0.292780000000     0.719240000000     0.0412744  
H137     H      0.260960000000     0.304110000000     0.793170000000     0.0568563  
H138     H      0.252110000000     0.275440000000     0.657650000000     0.0410761  
H139     H      0.303290000000     0.242330000000     0.806160000000     0.0597165  
H140     H      0.252330000000     0.196730000000     0.653930000000     0.0556903  
H141     H      0.215000000000     0.261600000000     0.633130000000     0.0557095  
H142     H      0.264350000000     0.227050000000     0.786240000000     0.0410288  
H143     H      0.196580000000     0.244360000000     0.571440000000     0.0335387  
H144     H      0.244390000000     0.193100000000     0.366090000000     0.0339619  
H145     H      0.273420000000     0.318770000000     0.072500000000     0.0350073  
H146     H      0.258020000000     0.212630000000     0.228320000000     0.0414132  
H147     H      0.255660000000     0.299040000000     0.208900000000     0.0409381  
H148     H      0.253260000000     0.301710000000     0.131840000000     0.0565107  
H149     H      0.236380000000     0.281520000000     0.270200000000     0.0412326  
H150     H      0.310670000000     0.254530000000     0.152200000000     0.0594798  
H151     H      0.263030000000     0.210920000000     0.305080000000     0.0559896  
H152     H      0.203180000000     0.256230000000     0.289530000000     0.0560556  
H153     H      0.277170000000     0.230090000000     0.167030000000     0.0410107  
H154     H      0.185140000000     0.238210000000     0.351160000000     0.033738   
H155     H      0.410220000000     0.335340000000     0.043920000000     0.033647   
H156     H      0.606950000000     0.317220000000     0.933470000000     0.0354037  
H157     H      0.486800000000     0.354310000000     0.027910000000     0.0410044  
H158     H      0.531550000000     0.291600000000     0.954800000000     0.0410032  
H159     H      0.565020000000     0.315510000000     0.930280000000     0.0566973  
H160     H      0.488960000000     0.291930000000     0.950010000000     0.0412486  
H161     H      0.560840000000     0.329590000000     0.063490000000     0.0595922  
H162     H      0.452410000000     0.333610000000     0.050470000000     0.0558324  
H163     H      0.457360000000     0.313880000000     0.918840000000     0.0559779  
H164     H      0.529300000000     0.353760000000     0.033050000000     0.0411626  
H165     H      0.415040000000     0.315190000000     0.913760000000     0.034252   
H166     H      0.334320000000     0.601000000000     0.887590000000     0.0333482  
H167     H      0.315550000000     0.407340000000     0.019010000000     0.0351697  
H168     H      0.354780000000     0.526130000000     0.918250000000     0.041082   
H169     H      0.290150000000     0.481630000000     0.985740000000     0.0408748  
H170     H      0.312770000000     0.449460000000     0.017760000000     0.056733   
H171     H      0.288710000000     0.524480000000     0.984750000000     0.041134   
H172     H      0.335460000000     0.450100000000     0.888270000000     0.0594666  
H173     H      0.333690000000     0.558430000000     0.886610000000     0.05575    
H174     H      0.308000000000     0.558510000000     0.015110000000     0.0560923  
H175     H      0.356130000000     0.483400000000     0.919080000000     0.0409414  
H176     H      0.308380000000     0.601130000000     0.014640000000     0.0339736  
N1       N      0.183810000000     0.906570000000     0.441690000000    -0.180566   
N2       N      0.185020000000     0.106520000000     0.464140000000    -0.179962   
N3       N      0.103520000000     0.826940000000     0.472260000000    -0.180555   
N4       N      0.903660000000     0.826040000000     0.467410000000    -0.179959   
N5       N      0.821710000000     0.106650000000     0.495900000000    -0.180903   
N6       N      0.822940000000     0.906510000000     0.476230000000    -0.180082   
N7       N      0.106460000000     0.189550000000     0.463500000000    -0.180768   
N8       N      0.907390000000     0.186680000000     0.490400000000    -0.179886   
N9       N      0.797270000000     0.798000000000     0.574380000000    -0.180331   
N10      N      0.708300000000     0.716620000000     0.863080000000    -0.180418   
N11      N      0.794690000000     0.800610000000     0.362370000000    -0.181035   
N12      N      0.709320000000     0.713560000000     0.075810000000    -0.179773   
N13      N      0.719910000000     0.305020000000     0.886150000000    -0.180728   
N14      N      0.804280000000     0.214790000000     0.601210000000    -0.180128   
N15      N      0.802240000000     0.210600000000     0.381250000000    -0.181242   
N16      N      0.712460000000     0.299030000000     0.100480000000    -0.179923   
N17      N      0.689150000000     0.408280000000     0.984910000000    -0.180636   
N18      N      0.680370000000     0.608730000000     0.974060000000    -0.180172   
N19      N      0.207000000000     0.795880000000     0.561400000000    -0.18078    
N20      N      0.295400000000     0.710510000000     0.846780000000    -0.179883   
N21      N      0.292390000000     0.711500000000     0.059190000000    -0.181037   
N22      N      0.209720000000     0.802270000000     0.345230000000    -0.180046   
N23      N      0.601150000000     0.691460000000     0.964410000000    -0.180826   
N24      N      0.401340000000     0.685890000000     0.957920000000    -0.180121   
N25      N      0.303150000000     0.292420000000     0.865410000000    -0.180883   
N26      N      0.213480000000     0.210900000000     0.577630000000    -0.180438   
N27      N      0.303850000000     0.296600000000     0.076500000000    -0.180558   
N28      N      0.213410000000     0.214310000000     0.362950000000    -0.179955   
N29      N      0.608960000000     0.324980000000     0.000120000000    -0.180587   
N30      N      0.409590000000     0.325440000000     0.978380000000    -0.179957   
N31      N      0.327670000000     0.403610000000     0.954780000000    -0.1807     
N32      N      0.321570000000     0.604130000000     0.951260000000    -0.180045   
O1       O      0.333310000000     0.300480000000     0.026120000000    -0.246587   
O2       O      0.306290000000     0.323790000000     0.911750000000    -0.250863   
O3       O      0.372910000000     0.332710000000     0.005860000000    -0.24978    
O4       O      0.324220000000     0.368900000000     0.992680000000    -0.246892   
O5       O      0.337970000000     0.366540000000     0.929930000000    -0.247773   
O6       O      0.375150000000     0.321620000000     0.940960000000    -0.246023   
O7       O      0.304480000000     0.324220000000     0.022560000000    -0.247327   
O8       O      0.331070000000     0.296040000000     0.918610000000    -0.245096   
O9       O      0.293090000000     0.687510000000     0.999480000000    -0.247891   
O10      O      0.319650000000     0.711410000000     0.905080000000    -0.248104   
O11      O      0.316860000000     0.640010000000     0.984190000000    -0.248213   
O12      O      0.366310000000     0.672180000000     0.984380000000    -0.250944   
O13      O      0.365220000000     0.693560000000     0.928440000000    -0.24777    
O14      O      0.330410000000     0.639820000000     0.920700000000    -0.249545   
O15      O      0.325120000000     0.703620000000     0.018220000000    -0.251154   
O16      O      0.301860000000     0.679080000000     0.891290000000    -0.248401   
O17      O      0.688860000000     0.306160000000     0.933320000000    -0.246133   
O18      O      0.700980000000     0.332200000000     0.064120000000    -0.245198   
O19      O      0.644330000000     0.324340000000     0.964260000000    -0.245265   
O20      O      0.671520000000     0.372770000000     0.968800000000    -0.252018   
O21      O      0.702040000000     0.371610000000     0.007680000000    -0.240286   
O22      O      0.645370000000     0.332520000000     0.030220000000    -0.249063   
O23      O      0.715740000000     0.331740000000     0.941530000000    -0.249394   
O24      O      0.695370000000     0.298770000000     0.034370000000    -0.252532   
O25      O      0.706470000000     0.688280000000     0.915020000000    -0.248972   
O26      O      0.679910000000     0.712130000000     0.026050000000    -0.245381   
O27      O      0.683680000000     0.644170000000     0.939340000000    -0.247126   
O28      O      0.636310000000     0.677680000000     0.937490000000    -0.250761   
O29      O      0.637680000000     0.697720000000     0.994630000000    -0.242004   
O30      O      0.672340000000     0.644800000000     0.004210000000    -0.250997   
O31      O      0.678690000000     0.713530000000     0.912490000000    -0.252568   
O32      O      0.706810000000     0.685910000000     0.022530000000    -0.250214   
O33      O      0.830340000000     0.142490000000     0.527670000000    -0.243569   
O34      O      0.870390000000     0.202890000000     0.487410000000    -0.244742   
O35      O      0.803700000000     0.186770000000     0.548550000000    -0.248387   
O36      O      0.800860000000     0.197970000000     0.450910000000    -0.251963   
O37      O      0.833360000000     0.194240000000     0.418430000000    -0.247517   
O38      O      0.832910000000     0.210420000000     0.550200000000    -0.250312   
O39      O      0.822630000000     0.142590000000     0.461490000000    -0.250652   
O40      O      0.873170000000     0.165710000000     0.497660000000    -0.250954   
O41      O      0.824580000000     0.800110000000     0.519800000000    -0.243614   
O42      O      0.796860000000     0.827010000000     0.418430000000    -0.247544   
O43      O      0.867400000000     0.819790000000     0.497390000000    -0.246467   
O44      O      0.828730000000     0.870050000000     0.506320000000    -0.249653   
O45      O      0.823000000000     0.871610000000     0.439190000000    -0.247852   
O46      O      0.868680000000     0.837460000000     0.437410000000    -0.250441   
O47      O      0.800410000000     0.828500000000     0.526120000000    -0.247493   
O48      O      0.825980000000     0.804240000000     0.408560000000    -0.251104   
O49      O      0.138440000000     0.815850000000     0.440780000000    -0.243011   
O50      O      0.193840000000     0.870970000000     0.472240000000    -0.244082   
O51      O      0.177780000000     0.810300000000     0.387430000000    -0.245654   
O52      O      0.183690000000     0.797640000000     0.501100000000    -0.250462   
O53      O      0.201780000000     0.828790000000     0.519320000000    -0.245518   
O54      O      0.211150000000     0.823350000000     0.407620000000    -0.253644   
O55      O      0.140260000000     0.841760000000     0.489580000000    -0.248771   
O56      O      0.169360000000     0.870050000000     0.421270000000    -0.249303   
O57      O      0.196070000000     0.143490000000     0.441950000000    -0.246024   
O58      O      0.142180000000     0.191510000000     0.497920000000    -0.247618   
O59      O      0.212750000000     0.187540000000     0.417650000000    -0.247473   
O60      O      0.206450000000     0.180280000000     0.531510000000    -0.252678   
O61      O      0.189110000000     0.213010000000     0.519650000000    -0.250879   
O62      O      0.182840000000     0.209920000000     0.410060000000    -0.248416   
O63      O      0.170560000000     0.141130000000     0.491720000000    -0.250818   
O64      O      0.142510000000     0.180500000000     0.433210000000    -0.246169   
S1       S      0.153770000000     0.908970000000     0.378740000000     0.0029415  
S2       S      0.102000000000     0.859890000000     0.530660000000     0.00275589 
S3       S      0.826050000000     0.103710000000     0.578660000000     0.00397945 
S4       S      0.103770000000     0.180540000000     0.381940000000     0.00351804 
S5       S      0.827070000000     0.762730000000     0.574150000000     0.00527868 
S6       S      0.759200000000     0.830040000000     0.365210000000     0.00459969 
S7       S      0.754510000000     0.335410000000     0.890580000000     0.00353241 
S8       S      0.840950000000     0.207870000000     0.336280000000     0.00369794 
S9       S      0.730030000000     0.409990000000     0.022870000000     0.00648374 
S10      S      0.184550000000     0.756430000000     0.546060000000     0.00320928 
S11      S      0.251120000000     0.694000000000     0.039980000000     0.00407385 
S12      S      0.600410000000     0.723390000000     0.024600000000     0.00561492 
S13      S      0.328500000000     0.254240000000     0.875250000000     0.00471849 
S14      S      0.339370000000     0.267980000000     0.088950000000     0.00485961 
S15      S      0.606860000000     0.332490000000     0.082240000000     0.00278435 
S16      S      0.340590000000     0.403580000000     0.874750000000     0.0034866  


