data_structure

_audit_creation_method RASPA-1.0
_audit_creation_date 2023-6-5
_audit_author_name 'Poobodin Mano'

_cell_length_a    57.8791
_cell_length_b    57.8679
_cell_length_c    30.43
_cell_angle_alpha 90.0294
_cell_angle_beta  89.9094
_cell_angle_gamma 90.0001
_cell_volume      101920

_symmetry_cell_setting          triclinic
_symmetry_space_group_name_Hall 'P 1'
_symmetry_space_group_name_H-M  'P 1'
_symmetry_Int_Tables_number     1

_symmetry_equiv_pos_as_xyz 'x,y,z'

loop_
_atom_site_label
_atom_site_type_symbol
_atom_site_fract_x
_atom_site_fract_y
_atom_site_fract_z
_atom_site_charge
C1       C      0.376050000000     0.318590000000     0.993100000000     0.350358   
C2       C      0.305340000000     0.299050000000     0.070050000000     0.345412   
C3       C      0.322110000000     0.372000000000     0.996380000000     0.351507   
C4       C      0.303410000000     0.299720000000     0.922710000000     0.345534   
C5       C      0.309580000000     0.615680000000     0.977030000000     0.344411   
C6       C      0.290760000000     0.691740000000     0.039360000000     0.349954   
C7       C      0.365780000000     0.665830000000     0.979490000000     0.350093   
C8       C      0.297460000000     0.685200000000     0.894130000000     0.348646   
C9       C      0.619390000000     0.306480000000     0.984220000000     0.34772    
C10      C      0.690470000000     0.295240000000     0.897750000000     0.350597   
C11      C      0.672610000000     0.362870000000     0.979190000000     0.349835   
C12      C      0.689180000000     0.288960000000     0.050520000000     0.34725    
C13      C      0.665770000000     0.607030000000     0.982420000000     0.347727   
C14      C      0.680700000000     0.679640000000     0.911440000000     0.347916   
C15      C      0.610060000000     0.663030000000     0.987290000000     0.34665    
C16      C      0.681490000000     0.677640000000     0.061270000000     0.346585   
C17      C      0.821000000000     0.110450000000     0.472840000000     0.346502   
C18      C      0.806850000000     0.179560000000     0.552980000000     0.347767   
C19      C      0.878680000000     0.165160000000     0.477830000000     0.353665   
C20      C      0.809420000000     0.182120000000     0.399820000000     0.350637   
C21      C      0.794030000000     0.795560000000     0.563070000000     0.350089   
C22      C      0.862480000000     0.810530000000     0.495450000000     0.350766   
C23      C      0.788870000000     0.797820000000     0.411070000000     0.350477   
C24      C      0.805790000000     0.866820000000     0.477130000000     0.349962   
C25      C      0.178170000000     0.798990000000     0.399100000000     0.345115   
C26      C      0.106680000000     0.814750000000     0.480290000000     0.344918   
C27      C      0.180230000000     0.797370000000     0.546510000000     0.346088   
C28      C      0.158770000000     0.869870000000     0.474780000000     0.35045    
C29      C      0.196280000000     0.180260000000     0.419860000000     0.35031    
C30      C      0.175210000000     0.113460000000     0.486540000000     0.344608   
C31      C      0.188560000000     0.186680000000     0.572920000000     0.350056   
C32      C      0.121970000000     0.170600000000     0.502640000000     0.344795   
C33      C      0.153780000000     0.931400000000     0.443300000000    -0.13807    
C34      C      0.188330000000     0.077220000000     0.513610000000     0.0710604  
C35      C      0.164870000000     0.078690000000     0.449860000000     0.0710215  
C36      C      0.188600000000     0.053100000000     0.511930000000    -0.0886412  
C37      C      0.172510000000     0.003270000000     0.517020000000    -0.0362748  
C38      C      0.170410000000     0.979230000000     0.516180000000    -0.0302997  
C39      C      0.175470000000     0.015800000000     0.477840000000    -0.00326539 
C40      C      0.164790000000     0.054600000000     0.447180000000    -0.0887155  
C41      C      0.171210000000     0.967110000000     0.476140000000    -0.0136315  
C42      C      0.177520000000     0.927550000000     0.507440000000    -0.102307   
C43      C      0.174530000000     0.979600000000     0.437010000000    -0.0304286  
C44      C      0.173500000000     0.903820000000     0.506930000000     0.077827   
C45      C      0.149140000000     0.907530000000     0.444310000000     0.185811   
C46      C      0.176640000000     0.003660000000     0.437850000000    -0.0365743  
C47      C      0.176530000000     0.041470000000     0.478720000000     0.0486748  
C48      C      0.167820000000     0.941640000000     0.475180000000     0.0708274  
C49      C      0.922950000000     0.816700000000     0.531810000000    -0.138273   
C50      C      0.070770000000     0.804500000000     0.447710000000     0.0709855  
C51      C      0.071640000000     0.819890000000     0.519920000000     0.0710749  
C52      C      0.046670000000     0.803080000000     0.449290000000    -0.0887255  
C53      C      0.996970000000     0.790390000000     0.473170000000    -0.0364508  
C54      C      0.972840000000     0.789700000000     0.475280000000    -0.0302731  
C55      C      0.009140000000     0.809730000000     0.488800000000    -0.00330931 
C56      C      0.047570000000     0.818860000000     0.522500000000    -0.0889505  
C57      C      0.960310000000     0.808400000000     0.492850000000    -0.0135058  
C58      C      0.921580000000     0.797870000000     0.461560000000    -0.101865   
C59      C      0.972540000000     0.827790000000     0.508220000000    -0.0302705  
C60      C      0.897510000000     0.798000000000     0.463890000000     0.0775132  
C61      C      0.898680000000     0.816030000000     0.534210000000     0.185943   
C62      C      0.996650000000     0.828420000000     0.506330000000    -0.0366459  
C63      C      0.034770000000     0.810480000000     0.486880000000     0.0486846  
C64      C      0.934620000000     0.807750000000     0.495270000000     0.0705674  
C65      C      0.793230000000     0.927680000000     0.504280000000    -0.138345   
C66      C      0.826940000000     0.074380000000     0.437230000000     0.0720808  
C67      C      0.805980000000     0.075910000000     0.504180000000     0.0718646  
C68      C      0.824560000000     0.050390000000     0.435770000000    -0.0890066  
C69      C      0.829440000000     0.999350000000     0.456810000000    -0.0363433  
C70      C      0.827580000000     0.975280000000     0.456990000000    -0.0302475  
C71      C      0.810550000000     0.013250000000     0.468910000000    -0.00326112 
C72      C      0.803220000000     0.051930000000     0.503700000000    -0.0887735  
C73      C      0.806760000000     0.964530000000     0.469250000000    -0.0137263  
C74      C      0.814750000000     0.925470000000     0.436910000000    -0.10236    
C75      C      0.787810000000     0.978440000000     0.481030000000    -0.0302859  
C76      C      0.813590000000     0.901430000000     0.439100000000     0.0769478  
C77      C      0.791470000000     0.903440000000     0.505030000000     0.185054   
C78      C      0.789690000000     0.002520000000     0.480930000000    -0.0368015  
C79      C      0.812710000000     0.038840000000     0.469370000000     0.0490134  
C80      C      0.804970000000     0.938900000000     0.470240000000     0.0704874  
C81      C      0.938390000000     0.184740000000     0.454960000000    -0.138097   
C82      C      0.085410000000     0.160880000000     0.533280000000     0.0710094  
C83      C      0.087780000000     0.188070000000     0.475160000000     0.0712026  
C84      C      0.061310000000     0.162320000000     0.533010000000    -0.0888035  
C85      C      0.010700000000     0.177110000000     0.537170000000    -0.0366485  
C86      C      0.986620000000     0.176400000000     0.533740000000    -0.0302708  
C87      C      0.024600000000     0.176950000000     0.499250000000    -0.00326701 
C88      C      0.063750000000     0.189860000000     0.473880000000    -0.0890322  
C89      C      0.975910000000     0.175400000000     0.492310000000    -0.0137368  
C90      C      0.937990000000     0.158860000000     0.516510000000    -0.102277   
C91      C      0.989860000000     0.175480000000     0.454430000000    -0.0300279  
C92      C      0.914250000000     0.156180000000     0.511160000000     0.0775617  
C93      C      0.914600000000     0.180990000000     0.448700000000     0.185149   
C94      C      0.013890000000     0.176300000000     0.457860000000    -0.0366121  
C95      C      0.050190000000     0.176630000000     0.502550000000     0.0487688  
C96      C      0.950370000000     0.173370000000     0.488460000000     0.0707198  
C97      C      0.760370000000     0.785520000000     0.664390000000    -0.138711   
C98      C      0.703570000000     0.678230000000     0.846490000000     0.0719612  
C99      C      0.689460000000     0.714180000000     0.872630000000     0.0720201  
C100     C      0.714840000000     0.689260000000     0.811680000000    -0.0886962  
C101     C      0.726330000000     0.716400000000     0.728630000000    -0.0364138  
C102     C      0.737960000000     0.727990000000     0.694880000000    -0.0302539  
C103     C      0.725970000000     0.725490000000     0.771490000000    -0.00322957 
C104     C      0.700540000000     0.725760000000     0.838320000000    -0.088916   
C105     C      0.749480000000     0.748920000000     0.703260000000    -0.0138052  
C106     C      0.775210000000     0.749570000000     0.636880000000    -0.102452   
C107     C      0.749270000000     0.757880000000     0.746220000000    -0.0302962  
C108     C      0.786580000000     0.761660000000     0.603610000000     0.0770539  
C109     C      0.772700000000     0.797490000000     0.631730000000     0.185249   
C110     C      0.737630000000     0.746330000000     0.779890000000    -0.0366607  
C111     C      0.713550000000     0.713330000000     0.807460000000     0.0490345  
C112     C      0.761650000000     0.761440000000     0.667410000000     0.0706268  
C113     C      0.743440000000     0.774040000000     0.338750000000    -0.138152   
C114     C      0.715550000000     0.688080000000     0.100080000000     0.071901   
C115     C      0.678850000000     0.699080000000     0.127790000000     0.0717157  
C116     C      0.726520000000     0.699350000000     0.134870000000    -0.0887403  
C117     C      0.744570000000     0.737040000000     0.195180000000    -0.0363352  
C118     C      0.755060000000     0.749410000000     0.229170000000    -0.0303319  
C119     C      0.724780000000     0.723600000000     0.203230000000    -0.0031961  
C120     C      0.689260000000     0.710470000000     0.163080000000    -0.088517   
C121     C      0.746040000000     0.748620000000     0.272080000000    -0.0135456  
C122     C      0.780960000000     0.763990000000     0.311060000000    -0.102077   
C123     C      0.726330000000     0.735050000000     0.280200000000    -0.0303265  
C124     C      0.790920000000     0.776850000000     0.344810000000     0.0775059  
C125     C      0.753780000000     0.787660000000     0.371630000000     0.185434   
C126     C      0.715810000000     0.722700000000     0.246170000000    -0.0365375  
C127     C      0.713380000000     0.710870000000     0.166780000000     0.0489398  
C128     C      0.756970000000     0.762150000000     0.308070000000     0.0706473  
C129     C      0.701790000000     0.260360000000     0.798630000000    -0.138613   
C130     C      0.809000000000     0.201960000000     0.618430000000     0.0717967  
C131     C      0.772730000000     0.188270000000     0.593290000000     0.0721422  
C132     C      0.798330000000     0.213280000000     0.653590000000    -0.0888723  
C133     C      0.769010000000     0.247330000000     0.705930000000    -0.0363306  
C134     C      0.757310000000     0.259430000000     0.738910000000    -0.0302901  
C135     C      0.762520000000     0.224640000000     0.694960000000    -0.00332437 
C136     C      0.761520000000     0.199270000000     0.628170000000    -0.0888942  
C137     C      0.738880000000     0.249100000000     0.761790000000    -0.0136069  
C138     C      0.737140000000     0.277050000000     0.824930000000    -0.102225   
C139     C      0.732670000000     0.226260000000     0.751290000000    -0.0302588  
C140     C      0.724580000000     0.288820000000     0.857070000000     0.0775417  
C141     C      0.689340000000     0.272980000000     0.830270000000     0.186656   
C142     C      0.744310000000     0.214190000000     0.718220000000    -0.0366052  
C143     C      0.774300000000     0.212130000000     0.658650000000     0.0490636  
C144     C      0.725840000000     0.262190000000     0.795850000000     0.0708511  
C145     C      0.785570000000     0.226160000000     0.324790000000    -0.138809   
C146     C      0.700360000000     0.254180000000     0.086380000000     0.0715638  
C147     C      0.709120000000     0.290440000000     0.118610000000     0.0719328  
C148     C      0.711280000000     0.242690000000     0.120980000000    -0.0886824  
C149     C      0.747810000000     0.224120000000     0.183230000000    -0.036212   
C150     C      0.760240000000     0.213670000000     0.217180000000    -0.0305601  
C151     C      0.733910000000     0.243580000000     0.191520000000    -0.00339056 
C152     C      0.720230000000     0.279540000000     0.153560000000    -0.0891353  
C153     C      0.759140000000     0.222520000000     0.260150000000    -0.0138096  
C154     C      0.774920000000     0.188200000000     0.300290000000    -0.102661   
C155     C      0.745000000000     0.241750000000     0.268610000000    -0.0305972  
C156     C      0.788030000000     0.178810000000     0.334260000000     0.0769735  
C157     C      0.799590000000     0.216360000000     0.357570000000     0.185687   
C158     C      0.732470000000     0.252110000000     0.234740000000    -0.0364013  
C159     C      0.721520000000     0.255370000000     0.155060000000     0.04891    
C160     C      0.773150000000     0.212120000000     0.295860000000     0.070847   
C161     C      0.690010000000     0.422580000000     0.007840000000    -0.138412   
C162     C      0.657190000000     0.570760000000     0.949560000000     0.0720527  
C163     C      0.682440000000     0.572550000000     0.010730000000     0.0719615  
C164     C      0.659380000000     0.546750000000     0.948000000000    -0.0886296  
C165     C      0.676130000000     0.497340000000     0.938450000000    -0.0362856  
C166     C      0.676910000000     0.473190000000     0.938310000000    -0.0303597  
C167     C      0.675270000000     0.509650000000     0.978310000000    -0.00314019 
C168     C      0.685090000000     0.548560000000     0.010040000000    -0.0885546  
C169     C      0.676970000000     0.460800000000     0.978020000000    -0.0137773  
C170     C      0.661810000000     0.423080000000     0.950140000000    -0.102609   
C171     C      0.676480000000     0.473100000000     0.017850000000    -0.0301541  
C172     C      0.660650000000     0.399060000000     0.952240000000     0.0773205  
C173     C      0.688020000000     0.398380000000     0.010670000000     0.186071   
C174     C      0.675610000000     0.497220000000     0.018000000000    -0.0363515  
C175     C      0.673380000000     0.535300000000     0.978580000000     0.0489447  
C176     C      0.676620000000     0.435130000000     0.978050000000     0.0710415  
C177     C      0.286860000000     0.723910000000     0.799720000000    -0.138404   
C178     C      0.181280000000     0.768840000000     0.602680000000     0.0718943  
C179     C      0.213480000000     0.793500000000     0.591680000000     0.0718011  
C180     C      0.192720000000     0.757560000000     0.636880000000    -0.0886713  
C181     C      0.226380000000     0.728250000000     0.689110000000    -0.0363468  
C182     C      0.238240000000     0.716960000000     0.722810000000    -0.030309   
C183     C      0.227630000000     0.752400000000     0.684770000000    -0.00320543 
C184     C      0.225420000000     0.782620000000     0.625740000000    -0.0886865  
C185     C      0.251620000000     0.729550000000     0.753000000000    -0.0136295  
C186     C      0.254170000000     0.699130000000     0.811360000000    -0.10226    
C187     C      0.252880000000     0.753710000000     0.748680000000    -0.0304091  
C188     C      0.266200000000     0.688120000000     0.844990000000     0.0770797  
C189     C      0.299090000000     0.712000000000     0.832620000000     0.185345   
C190     C      0.241020000000     0.765000000000     0.714960000000    -0.0364176  
C191     C      0.215090000000     0.764370000000     0.648770000000     0.0489953  
C192     C      0.264290000000     0.717520000000     0.788780000000     0.0705558  
C193     C      0.273960000000     0.736510000000     0.120040000000    -0.13814    
C194     C      0.182480000000     0.767140000000     0.350380000000     0.0717232  
C195     C      0.205850000000     0.800450000000     0.341340000000     0.0716211  
C196     C      0.193270000000     0.756500000000     0.314610000000    -0.0885838  
C197     C      0.209890000000     0.744110000000     0.222830000000    -0.0362542  
C198     C      0.220930000000     0.733670000000     0.187100000000    -0.0303704  
C199     C      0.222590000000     0.756940000000     0.253710000000    -0.00321483 
C200     C      0.217050000000     0.790310000000     0.305480000000    -0.0886144  
C201     C      0.244950000000     0.735780000000     0.181400000000    -0.0135148  
C202     C      0.250190000000     0.702840000000     0.128740000000    -0.102187   
C203     C      0.257660000000     0.748600000000     0.212300000000    -0.0303239  
C204     C      0.261340000000     0.692800000000     0.092900000000     0.077419   
C205     C      0.284420000000     0.726470000000     0.082850000000     0.185841   
C206     C      0.246610000000     0.759060000000     0.248020000000    -0.0363609  
C207     C      0.210830000000     0.768050000000     0.291710000000     0.0489007  
C208     C      0.256680000000     0.724790000000     0.143200000000     0.0707212  
C209     C      0.425940000000     0.659920000000     0.019000000000    -0.137954   
C210     C      0.575530000000     0.675920000000     0.952830000000     0.0718485  
C211     C      0.573740000000     0.657620000000     0.022450000000     0.0718233  
C212     C      0.551490000000     0.677990000000     0.951950000000    -0.0887156  
C213     C      0.500580000000     0.665490000000     0.946960000000    -0.0364535  
C214     C      0.476440000000     0.665560000000     0.946180000000    -0.0303459  
C215     C      0.512580000000     0.670710000000     0.985840000000    -0.00327179 
C216     C      0.549670000000     0.659480000000     0.022710000000    -0.0885951  
C217     C      0.463700000000     0.670900000000     0.984250000000    -0.0137144  
C218     C      0.425470000000     0.677310000000     0.947450000000    -0.102651   
C219     C      0.475720000000     0.676500000000     0.022960000000    -0.0304127  
C220     C      0.401490000000     0.675150000000     0.946850000000     0.0772582  
C221     C      0.401800000000     0.657060000000     0.017160000000     0.185342   
C222     C      0.499870000000     0.676370000000     0.023760000000    -0.0365728  
C223     C      0.538230000000     0.669580000000     0.987020000000     0.0488976  
C224     C      0.438010000000     0.669790000000     0.983870000000     0.0705088  
C225     C      0.203570000000     0.231590000000     0.654460000000    -0.137993   
C226     C      0.298270000000     0.266790000000     0.877020000000     0.0714908  
C227     C      0.275600000000     0.300350000000     0.865280000000     0.0714754  
C228     C      0.287090000000     0.255480000000     0.842530000000    -0.0888062  
C229     C      0.250780000000     0.231660000000     0.786700000000    -0.0363535  
C230     C      0.239080000000     0.220460000000     0.752690000000    -0.0303812  
C231     C      0.257410000000     0.254920000000     0.782490000000    -0.00327677 
C232     C      0.264100000000     0.289570000000     0.830520000000    -0.0887506  
C233     C      0.233750000000     0.232250000000     0.713590000000    -0.0135176  
C234     C      0.226130000000     0.197420000000     0.666800000000    -0.102123   
C235     C      0.240400000000     0.255510000000     0.709350000000    -0.0303947  
C236     C      0.214190000000     0.186500000000     0.632940000000     0.0776536  
C237     C      0.191080000000     0.220000000000     0.621470000000     0.185729   
C238     C      0.252090000000     0.266720000000     0.743420000000    -0.036438   
C239     C      0.269730000000     0.266830000000     0.818860000000     0.0488874  
C240     C      0.221170000000     0.220340000000     0.677510000000     0.0706491  
C241     C      0.242230000000     0.197980000000     0.342220000000    -0.137858   
C242     C      0.272470000000     0.291480000000     0.114690000000     0.0715176  
C243     C      0.307960000000     0.272590000000     0.129630000000     0.0714713  
C244     C      0.261810000000     0.279720000000     0.149240000000    -0.0888492  
C245     C      0.241060000000     0.241490000000     0.204960000000    -0.0364488  
C246     C      0.230370000000     0.229250000000     0.238890000000    -0.0303377  
C247     C      0.263220000000     0.250920000000     0.210720000000    -0.00325591 
C248     C      0.297860000000     0.260610000000     0.164570000000    -0.0888304  
C249     C      0.241540000000     0.226210000000     0.279490000000    -0.013543   
C250     C      0.206300000000     0.216070000000     0.323240000000    -0.102234   
C251     C      0.263770000000     0.235540000000     0.285180000000    -0.0302787  
C252     C      0.195590000000     0.203970000000     0.357120000000     0.0777157  
C253     C      0.230940000000     0.185270000000     0.375380000000     0.185462   
C254     C      0.274510000000     0.247740000000     0.251140000000    -0.0365688  
C255     C      0.274470000000     0.263980000000     0.174540000000     0.0489399  
C256     C      0.229940000000     0.213430000000     0.315740000000     0.0706456  
C257     C      0.436310000000     0.311150000000     0.955130000000    -0.138354   
C258     C      0.585260000000     0.303630000000     0.027560000000     0.0717404  
C259     C      0.582720000000     0.303430000000     0.949790000000     0.0722143  
C260     C      0.561190000000     0.302680000000     0.031050000000    -0.0889719  
C261     C      0.510770000000     0.317260000000     0.026160000000    -0.0363049  
C262     C      0.486700000000     0.318980000000     0.026710000000    -0.0302778  
C263     C      0.521950000000     0.302740000000     0.995800000000    -0.00343843 
C264     C      0.558660000000     0.302410000000     0.952070000000    -0.0892735  
C265     C      0.473230000000     0.306210000000     0.996920000000    -0.0137706  
C266     C      0.434900000000     0.311850000000     0.033940000000    -0.102525   
C267     C      0.484380000000     0.291210000000     0.967350000000    -0.0304671  
C268     C      0.411150000000     0.315630000000     0.031740000000     0.0774003  
C269     C      0.412490000000     0.315910000000     0.953490000000     0.18591    
C270     C      0.508460000000     0.289500000000     0.966780000000    -0.0366126  
C271     C      0.547580000000     0.302300000000     0.993020000000     0.0491204  
C272     C      0.447750000000     0.309320000000     0.995410000000     0.0708292  
C273     C      0.314380000000     0.432880000000     0.030980000000    -0.138003   
C274     C      0.308260000000     0.579530000000     0.940070000000     0.0711874  
C275     C      0.305950000000     0.580810000000     0.017840000000     0.0706648  
C276     C      0.307750000000     0.555420000000     0.940810000000    -0.0888229  
C277     C      0.322840000000     0.505920000000     0.954610000000    -0.0365195  
C278     C      0.324460000000     0.481880000000     0.956740000000    -0.0303644  
C279     C      0.307670000000     0.518010000000     0.982470000000    -0.00333043 
C280     C      0.305420000000     0.556690000000     0.019780000000    -0.0886954  
C281     C      0.310950000000     0.469290000000     0.986790000000    -0.0137933  
C282     C      0.316280000000     0.430320000000     0.952360000000    -0.102633   
C283     C      0.295620000000     0.481340000000     0.014440000000    -0.0303836  
C284     C      0.319710000000     0.406590000000     0.956000000000     0.077376   
C285     C      0.318800000000     0.409000000000     0.034140000000     0.185552   
C286     C      0.293990000000     0.505430000000     0.012300000000    -0.0365448  
C287     C      0.306650000000     0.543670000000     0.981000000000     0.0485697  
C288     C      0.313440000000     0.443780000000     0.990030000000     0.0707024  
Cd1      Cd     0.326210000000     0.322100000000     0.995710000000     0.507534   
Cd2      Cd     0.315800000000     0.665210000000     0.973940000000     0.50658    
Cd3      Cd     0.668710000000     0.312940000000     0.976890000000     0.506636   
Cd4      Cd     0.659600000000     0.656640000000     0.985690000000     0.508607   
Cd5      Cd     0.828890000000     0.159700000000     0.476570000000     0.507392   
Cd6      Cd     0.813110000000     0.817430000000     0.485640000000     0.505438   
Cd7      Cd     0.156320000000     0.819900000000     0.474910000000     0.508035   
Cd8      Cd     0.171210000000     0.163070000000     0.495690000000     0.507423   
H1       H      0.155270000000     0.088200000000     0.425210000000     0.0322021  
H2       H      0.182090000000     0.893650000000     0.532000000000     0.0322202  
H3       H      0.179240000000     0.012770000000     0.407150000000     0.0403195  
H4       H      0.167480000000     0.970200000000     0.546850000000     0.0390173  
H5       H      0.188570000000     0.934740000000     0.532690000000     0.0584035  
H6       H      0.171150000000     0.012090000000     0.548320000000     0.0410522  
H7       H      0.145150000000     0.942200000000     0.419280000000     0.0671554  
H8       H      0.155040000000     0.046350000000     0.421190000000     0.0546635  
H9       H      0.198200000000     0.043640000000     0.536590000000     0.0548993  
H10      H      0.175550000000     0.970750000000     0.405690000000     0.0390381  
H11      H      0.197700000000     0.085550000000     0.540070000000     0.0331433  
H12      H      0.124750000000     0.910200000000     0.393540000000     0.0931846  
H13      H      0.124330000000     0.883430000000     0.420670000000     0.116036   
H14      H      0.080890000000     0.826550000000     0.548190000000     0.0326087  
H15      H      0.888250000000     0.791000000000     0.435920000000     0.0320989  
H16      H      0.005510000000     0.843720000000     0.518000000000     0.0405527  
H17      H      0.964040000000     0.774340000000     0.463780000000     0.0387923  
H18      H      0.929830000000     0.790720000000     0.432630000000     0.0582071  
H19      H      0.006130000000     0.775610000000     0.459970000000     0.0410876  
H20      H      0.932730000000     0.823220000000     0.559510000000     0.0670614  
H21      H      0.039070000000     0.824460000000     0.552400000000     0.0549301  
H22      H      0.037420000000     0.796650000000     0.420890000000     0.0550393  
H23      H      0.963460000000     0.842670000000     0.521220000000     0.0388579  
H24      H      0.079330000000     0.798840000000     0.417860000000     0.0326935  
H25      H      0.898450000000     0.828250000000     0.599220000000     0.0928501  
H26      H      0.871500000000     0.817950000000     0.581040000000     0.114749   
H27      H      0.798600000000     0.085400000000     0.531550000000     0.0326371  
H28      H      0.822260000000     0.891850000000     0.413240000000     0.0309154  
H29      H      0.774720000000     0.012740000000     0.489770000000     0.0404469  
H30      H      0.842600000000     0.965070000000     0.448350000000     0.0391678  
H31      H      0.823480000000     0.933460000000     0.409320000000     0.0580768  
H32      H      0.845860000000     0.007070000000     0.448010000000     0.0409079  
H33      H      0.784950000000     0.937750000000     0.529890000000     0.0667203  
H34      H      0.794120000000     0.043670000000     0.530560000000     0.0548591  
H35      H      0.831870000000     0.040980000000     0.408280000000     0.0549482  
H36      H      0.771400000000     0.970730000000     0.489900000000     0.0376786  
H37      H      0.836310000000     0.082630000000     0.410630000000     0.0327165  
H38      H      0.768710000000     0.904000000000     0.558860000000     0.0917145  
H39      H      0.770970000000     0.876840000000     0.533250000000     0.115573   
H40      H      0.097630000000     0.198360000000     0.451990000000     0.0331096  
H41      H      0.905490000000     0.145090000000     0.534600000000     0.0318084  
H42      H      0.024110000000     0.175740000000     0.428030000000     0.0410398  
H43      H      0.976380000000     0.176650000000     0.563560000000     0.0388279  
H44      H      0.946610000000     0.149310000000     0.542330000000     0.0582893  
H45      H      0.018460000000     0.177870000000     0.569510000000     0.04048    
H46      H      0.947730000000     0.195790000000     0.432310000000     0.0667108  
H47      H      0.055840000000     0.201420000000     0.450300000000     0.0548221  
H48      H      0.051470000000     0.151690000000     0.555570000000     0.0549381  
H49      H      0.982250000000     0.174230000000     0.422020000000     0.0381023  
H50      H      0.093360000000     0.149230000000     0.556690000000     0.031929   
H51      H      0.914540000000     0.200020000000     0.389960000000     0.0917763  
H52      H      0.889230000000     0.183980000000     0.398420000000     0.115196   
H53      H      0.679640000000     0.724450000000     0.895900000000     0.0326948  
H54      H      0.796280000000     0.751510000000     0.579940000000     0.0308191  
H55      H      0.738060000000     0.753570000000     0.812710000000     0.0405328  
H56      H      0.737600000000     0.720760000000     0.662060000000     0.0391351  
H57      H      0.777080000000     0.730970000000     0.638590000000     0.0582441  
H58      H      0.717300000000     0.700510000000     0.720990000000     0.0408834  
H59      H      0.750370000000     0.795140000000     0.688350000000     0.0667998  
H60      H      0.698780000000     0.744350000000     0.835900000000     0.0548288  
H61      H      0.724880000000     0.679010000000     0.788800000000     0.0551995  
H62      H      0.758360000000     0.773720000000     0.754000000000     0.0378072  
H63      H      0.705190000000     0.659610000000     0.848880000000     0.0329045  
H64      H      0.764150000000     0.829760000000     0.658910000000     0.0916459  
H65      H      0.785770000000     0.831110000000     0.618400000000     0.116307   
H66      H      0.660150000000     0.699400000000     0.125860000000     0.0329041  
H67      H      0.809640000000     0.776950000000     0.346440000000     0.0324238  
H68      H      0.700780000000     0.712260000000     0.253580000000     0.0407385  
H69      H      0.769970000000     0.759990000000     0.221590000000     0.0388764  
H70      H      0.792130000000     0.755050000000     0.288070000000     0.0583811  
H71      H      0.751700000000     0.738410000000     0.162360000000     0.0408775  
H72      H      0.724790000000     0.773840000000     0.335610000000     0.0670374  
H73      H      0.678440000000     0.719350000000     0.186770000000     0.0548183  
H74      H      0.745200000000     0.698930000000     0.136800000000     0.0551662  
H75      H      0.719140000000     0.733800000000     0.312990000000     0.0390132  
H76      H      0.726360000000     0.679460000000     0.075970000000     0.0329437  
H77      H      0.721770000000     0.800790000000     0.392520000000     0.0927597  
H78      H      0.745660000000     0.815420000000     0.414750000000     0.11512    
H79      H      0.762170000000     0.178730000000     0.570120000000     0.032859   
H80      H      0.734320000000     0.299330000000     0.880040000000     0.0310695  
H81      H      0.739140000000     0.196610000000     0.711010000000     0.0407627  
H82      H      0.762340000000     0.277100000000     0.745710000000     0.0386976  
H83      H      0.755730000000     0.279060000000     0.823890000000     0.0582404  
H84      H      0.782770000000     0.255970000000     0.688210000000     0.0409134  
H85      H      0.692520000000     0.250030000000     0.774720000000     0.067314   
H86      H      0.742880000000     0.198130000000     0.630600000000     0.0549383  
H87      H      0.808880000000     0.222790000000     0.676740000000     0.0551084  
H88      H      0.718830000000     0.217630000000     0.768790000000     0.0391919  
H89      H      0.827620000000     0.203350000000     0.615530000000     0.0324412  
H90      H      0.657380000000     0.262920000000     0.803810000000     0.0935519  
H91      H      0.655370000000     0.285130000000     0.843170000000     0.117614   
H92      H      0.708700000000     0.309180000000     0.118590000000     0.0310713  
H93      H      0.788000000000     0.160130000000     0.337310000000     0.0314678  
H94      H      0.721600000000     0.266800000000     0.242480000000     0.0402426  
H95      H      0.771220000000     0.199050000000     0.209550000000     0.038821   
H96      H      0.765670000000     0.176720000000     0.278380000000     0.058421   
H97      H      0.749600000000     0.217300000000     0.150250000000     0.0405758  
H98      H      0.785410000000     0.244750000000     0.320280000000     0.0672306  
H99      H      0.728190000000     0.290080000000     0.178770000000     0.0541929  
H100     H      0.711570000000     0.223980000000     0.121080000000     0.054888   
H101     H      0.743550000000     0.248730000000     0.301540000000     0.0393174  
H102     H      0.692730000000     0.243770000000     0.060560000000     0.0324688  
H103     H      0.813510000000     0.248610000000     0.374940000000     0.0930308  
H104     H      0.828240000000     0.224990000000     0.397960000000     0.117041   
H105     H      0.691740000000     0.582170000000     0.035680000000     0.0329231  
H106     H      0.649140000000     0.390580000000     0.929190000000     0.0308023  
H107     H      0.674570000000     0.506090000000     0.049290000000     0.0406299  
H108     H      0.677530000000     0.464200000000     0.907110000000     0.0391516  
H109     H      0.650850000000     0.432160000000     0.927080000000     0.0583762  
H110     H      0.676270000000     0.506370000000     0.907280000000     0.0407301  
H111     H      0.701300000000     0.431690000000     0.030360000000     0.0673286  
H112     H      0.696360000000     0.540500000000     0.033910000000     0.0549455  
H113     H      0.649740000000     0.537210000000     0.923500000000     0.0549291  
H114     H      0.676100000000     0.464060000000     0.049000000000     0.0384836  
H115     H      0.646030000000     0.578910000000     0.925530000000     0.0327983  
H116     H      0.709570000000     0.397050000000     0.066060000000     0.0931222  
H117     H      0.694910000000     0.371100000000     0.055740000000     0.119943   
H118     H      0.222140000000     0.807470000000     0.574530000000     0.0328475  
H119     H      0.257120000000     0.674550000000     0.862510000000     0.0319843  
H120     H      0.242080000000     0.783660000000     0.712930000000     0.0406589  
H121     H      0.237210000000     0.698300000000     0.724750000000     0.0390142  
H122     H      0.236720000000     0.693600000000     0.803980000000     0.0583936  
H123     H      0.216540000000     0.717990000000     0.665990000000     0.0409437  
H124     H      0.295460000000     0.737340000000     0.780990000000     0.0669669  
H125     H      0.242790000000     0.788270000000     0.633450000000     0.0548011  
H126     H      0.183960000000     0.743750000000     0.654180000000     0.055274   
H127     H      0.262790000000     0.763940000000     0.771750000000     0.0388497  
H128     H      0.163980000000     0.763060000000     0.594550000000     0.033072   
H129     H      0.329840000000     0.729820000000     0.818630000000     0.0927317  
H130     H      0.333570000000     0.705960000000     0.853630000000     0.118132   
H131     H      0.211160000000     0.817700000000     0.350910000000     0.0330704  
H132     H      0.256160000000     0.675380000000     0.084190000000     0.0320837  
H133     H      0.256960000000     0.768530000000     0.271570000000     0.0407801  
H134     H      0.210560000000     0.724260000000     0.163520000000     0.0389285  
H135     H      0.236920000000     0.693120000000     0.145730000000     0.0584256  
H136     H      0.191310000000     0.742440000000     0.225860000000     0.040891   
H137     H      0.278410000000     0.754040000000     0.129320000000     0.067223   
H138     H      0.230300000000     0.799990000000     0.288370000000     0.0549758  
H139     H      0.188100000000     0.739170000000     0.305430000000     0.0551562  
H140     H      0.276230000000     0.750290000000     0.209210000000     0.0392436  
H141     H      0.169070000000     0.757550000000     0.367350000000     0.0331521  
H142     H      0.302540000000     0.756920000000     0.067960000000     0.0933808  
H143     H      0.303280000000     0.736190000000     0.025770000000     0.116775   
H144     H      0.581900000000     0.649440000000     0.050460000000     0.0329066  
H145     H      0.392620000000     0.681880000000     0.918200000000     0.0294909  
H146     H      0.508610000000     0.680800000000     0.054070000000     0.0406309  
H147     H      0.467780000000     0.660780000000     0.916000000000     0.0386574  
H148     H      0.434080000000     0.685180000000     0.919600000000     0.0575979  
H149     H      0.509830000000     0.660710000000     0.917360000000     0.0409101  
H150     H      0.435430000000     0.652960000000     0.046680000000     0.0669885  
H151     H      0.540090000000     0.652520000000     0.050300000000     0.0548467  
H152     H      0.543370000000     0.686200000000     0.923970000000     0.0550493  
H153     H      0.466440000000     0.681010000000     0.052690000000     0.0388366  
H154     H      0.585150000000     0.682550000000     0.924950000000     0.0329532  
H155     H      0.401350000000     0.637990000000     0.075850000000     0.0931186  
H156     H      0.375260000000     0.636840000000     0.046640000000     0.11686    
H157     H      0.270630000000     0.317900000000     0.873470000000     0.0326625  
H158     H      0.219400000000     0.168970000000     0.625010000000     0.0324617  
H159     H      0.257230000000     0.284560000000     0.738890000000     0.0406181  
H160     H      0.233850000000     0.202660000000     0.757360000000     0.0389028  
H161     H      0.239650000000     0.188040000000     0.683730000000     0.0583358  
H162     H      0.254270000000     0.222190000000     0.816650000000     0.0408467  
H163     H      0.198630000000     0.248990000000     0.663820000000     0.0671254  
H164     H      0.250610000000     0.298900000000     0.813440000000     0.0548489  
H165     H      0.292200000000     0.238010000000     0.834240000000     0.0550849  
H166     H      0.236840000000     0.264990000000     0.679440000000     0.0391506  
H167     H      0.311600000000     0.257390000000     0.894500000000     0.03302    
H168     H      0.167730000000     0.247530000000     0.614540000000     0.093224   
H169     H      0.159080000000     0.222120000000     0.587530000000     0.116029   
H170     H      0.326050000000     0.269340000000     0.122670000000     0.0326164  
H171     H      0.177350000000     0.207370000000     0.362270000000     0.0327562  
H172     H      0.291490000000     0.255010000000     0.256730000000     0.0406924  
H173     H      0.213450000000     0.221900000000     0.233050000000     0.0388518  
H174     H      0.196100000000     0.227930000000     0.303730000000     0.0583593  
H175     H      0.232090000000     0.243290000000     0.173950000000     0.0409898  
H176     H      0.260360000000     0.194820000000     0.335530000000     0.0670132  
H177     H      0.308230000000     0.248450000000     0.183060000000     0.0548689  
H178     H      0.243760000000     0.283070000000     0.156240000000     0.05519    
H179     H      0.272730000000     0.233760000000     0.316210000000     0.0390073  
H180     H      0.262050000000     0.303470000000     0.095840000000     0.0330294  
H181     H      0.260630000000     0.165630000000     0.388630000000     0.0931426  
H182     H      0.235470000000     0.154940000000     0.413800000000     0.116003   
H183     H      0.590590000000     0.303860000000     0.917430000000     0.0316581  
H184     H      0.401930000000     0.316730000000     0.062740000000     0.0312188  
H185     H      0.516540000000     0.277880000000     0.943470000000     0.040423   
H186     H      0.478690000000     0.330950000000     0.049490000000     0.0386154  
H187     H      0.443060000000     0.310520000000     0.065850000000     0.0580594  
H188     H      0.520650000000     0.327940000000     0.048530000000     0.040767   
H189     H      0.446170000000     0.310420000000     0.924840000000     0.0671703  
H190     H      0.548820000000     0.302400000000     0.921830000000     0.0545518  
H191     H      0.553330000000     0.302310000000     0.063360000000     0.0549137  
H192     H      0.474480000000     0.280860000000     0.944460000000     0.0390354  
H193     H      0.595190000000     0.304130000000     0.057730000000     0.0319119  
H194     H      0.413180000000     0.319930000000     0.884900000000     0.0932166  
H195     H      0.387400000000     0.329440000000     0.909430000000     0.117115   
H196     H      0.305400000000     0.590250000000     0.048610000000     0.0317555  
H197     H      0.321150000000     0.396950000000     0.925520000000     0.0311431  
H198     H      0.281920000000     0.514200000000     0.033830000000     0.0406062  
H199     H      0.336760000000     0.473200000000     0.935550000000     0.0385995  
H200     H      0.315540000000     0.438030000000     0.919960000000     0.0581083  
H201     H      0.333930000000     0.515080000000     0.931830000000     0.0405647  
H202     H      0.313290000000     0.443190000000     0.060660000000     0.0670913  
H203     H      0.304750000000     0.548330000000     0.051600000000     0.0543049  
H204     H      0.308300000000     0.546060000000     0.909990000000     0.0549175  
H205     H      0.284790000000     0.472120000000     0.037600000000     0.0390907  
H206     H      0.309390000000     0.587930000000     0.908300000000     0.032923   
H207     H      0.321520000000     0.410630000000     0.102880000000     0.0932296  
H208     H      0.331150000000     0.384400000000     0.080470000000     0.117315   
N1       N      0.160060000000     0.893610000000     0.475120000000    -0.198951   
N2       N      0.176280000000     0.089880000000     0.483160000000    -0.180254   
N3       N      0.132340000000     0.899420000000     0.416990000000    -0.218641   
N4       N      0.886030000000     0.807930000000     0.498710000000    -0.199463   
N5       N      0.083110000000     0.812950000000     0.482680000000    -0.180342   
N6       N      0.888600000000     0.821790000000     0.573210000000    -0.218611   
N7       N      0.803080000000     0.890370000000     0.473750000000    -0.199732   
N8       N      0.817880000000     0.087000000000     0.471350000000    -0.180172   
N9       N      0.776850000000     0.893820000000     0.535050000000    -0.218986   
N10      N      0.902360000000     0.167460000000     0.478430000000    -0.199427   
N11      N      0.098480000000     0.173340000000     0.504030000000    -0.180437   
N12      N      0.905000000000     0.189420000000     0.411090000000    -0.218862   
N13      N      0.784720000000     0.785260000000     0.599770000000    -0.199688   
N14      N      0.691130000000     0.690630000000     0.876850000000    -0.180446   
N15      N      0.773780000000     0.820960000000     0.635100000000    -0.219061   
N16      N      0.777660000000     0.787910000000     0.375930000000    -0.199069   
N17      N      0.691920000000     0.688130000000     0.096390000000    -0.180168   
N18      N      0.739720000000     0.801670000000     0.395820000000    -0.218662   
N19      N      0.701090000000     0.286040000000     0.861270000000    -0.199712   
N20      N      0.796250000000     0.189770000000     0.588290000000    -0.18028    
N21      N      0.665860000000     0.273240000000     0.826920000000    -0.218779   
N22      N      0.799530000000     0.192600000000     0.363890000000    -0.19964    
N23      N      0.699420000000     0.277870000000     0.085130000000    -0.180717   
N24      N      0.814190000000     0.230730000000     0.379650000000    -0.218951   
N25      N      0.673890000000     0.386600000000     0.981340000000    -0.198953   
N26      N      0.668500000000     0.583530000000     0.980870000000    -0.180413   
N27      N      0.698670000000     0.387760000000     0.045120000000    -0.219353   
N28      N      0.288070000000     0.694950000000     0.856970000000    -0.198976   
N29      N      0.191620000000     0.786620000000     0.580220000000    -0.180249   
N30      N      0.322090000000     0.716560000000     0.836740000000    -0.219147   
N31      N      0.278890000000     0.703970000000     0.070960000000    -0.199071   
N32      N      0.188760000000     0.788910000000     0.363650000000    -0.180045   
N33      N      0.298300000000     0.740200000000     0.057760000000    -0.218807   
N34      N      0.389530000000     0.665710000000     0.981580000000    -0.199336   
N35      N      0.586530000000     0.665610000000     0.987610000000    -0.180052   
N36      N      0.391750000000     0.643880000000     0.049030000000    -0.218927   
N37      N      0.197440000000     0.197780000000     0.609170000000    -0.199036   
N38      N      0.292490000000     0.289010000000     0.888390000000    -0.180236   
N39      N      0.171850000000     0.230610000000     0.605360000000    -0.218725   
N40      N      0.207740000000     0.189320000000     0.384150000000    -0.199118   
N41      N      0.295320000000     0.287800000000     0.104780000000    -0.180235   
N42      N      0.243060000000     0.168000000000     0.395250000000    -0.218889   
N43      N      0.399770000000     0.316980000000     0.992170000000    -0.199234   
N44      N      0.595880000000     0.304340000000     0.987230000000    -0.18064    
N45      N      0.403300000000     0.321340000000     0.913570000000    -0.218814   
N46      N      0.320420000000     0.395730000000     0.996190000000    -0.199327   
N47      N      0.307730000000     0.592100000000     0.978320000000    -0.180382   
N48      N      0.323350000000     0.400320000000     0.074870000000    -0.218967   
O1       O      0.326220000000     0.295680000000     0.059220000000    -0.250007   
O2       O      0.298410000000     0.320130000000     0.934450000000    -0.250239   
O3       O      0.365200000000     0.324280000000     0.027680000000    -0.254205   
O4       O      0.316730000000     0.359810000000     0.029330000000    -0.255335   
O5       O      0.328210000000     0.360800000000     0.962510000000    -0.255912   
O6       O      0.363540000000     0.313420000000     0.960480000000    -0.254034   
O7       O      0.294230000000     0.313260000000     0.046500000000    -0.250439   
O8       O      0.319050000000     0.289770000000     0.944830000000    -0.249849   
O9       O      0.282960000000     0.673080000000     0.023380000000    -0.252785   
O10      O      0.314010000000     0.694360000000     0.914970000000    -0.255821   
O11      O      0.312100000000     0.626540000000     0.941200000000    -0.249935   
O12      O      0.353080000000     0.663980000000     0.013160000000    -0.255801   
O13      O      0.355140000000     0.668810000000     0.943560000000    -0.255221   
O14      O      0.309520000000     0.627910000000     0.011600000000    -0.251011   
O15      O      0.310690000000     0.697480000000     0.026180000000    -0.255687   
O16      O      0.289000000000     0.667150000000     0.911440000000    -0.250103   
O17      O      0.671400000000     0.287730000000     0.912060000000    -0.253112   
O18      O      0.687960000000     0.310780000000     0.048600000000    -0.251154   
O19      O      0.629600000000     0.307930000000     0.947460000000    -0.248755   
O20      O      0.656120000000     0.352660000000     0.959930000000    -0.255636   
O21      O      0.688050000000     0.349780000000     0.994730000000    -0.250397   
O22      O      0.632190000000     0.307720000000     0.017920000000    -0.253586   
O23      O      0.699970000000     0.310650000000     0.921160000000    -0.255591   
O24      O      0.680630000000     0.278090000000     0.018240000000    -0.252366   
O25      O      0.682140000000     0.657980000000     0.916860000000    -0.250888   
O26      O      0.659760000000     0.677740000000     0.056240000000    -0.24929    
O27      O      0.653260000000     0.617740000000     0.955060000000    -0.251257   
O28      O      0.622420000000     0.670080000000     0.955600000000    -0.249629   
O29      O      0.620750000000     0.653150000000     0.018370000000    -0.248915   
O30      O      0.675460000000     0.619370000000     0.011430000000    -0.250562   
O31      O      0.669270000000     0.690550000000     0.940300000000    -0.250565   
O32      O      0.693000000000     0.667560000000     0.031450000000    -0.249981   
O33      O      0.795520000000     0.168910000000     0.523670000000    -0.248983   
O34      O      0.812240000000     0.160440000000     0.401870000000    -0.252842   
O35      O      0.813290000000     0.122700000000     0.504170000000    -0.249178   
O36      O      0.868380000000     0.149830000000     0.500210000000    -0.254279   
O37      O      0.865610000000     0.178690000000     0.456760000000    -0.260397   
O38      O      0.832090000000     0.121160000000     0.443260000000    -0.24865    
O39      O      0.828510000000     0.180620000000     0.547160000000    -0.252176   
O40      O      0.814900000000     0.193140000000     0.434130000000    -0.25639    
O41      O      0.850630000000     0.799320000000     0.467680000000    -0.248775   
O42      O      0.812980000000     0.854620000000     0.445320000000    -0.256724   
O43      O      0.808650000000     0.785350000000     0.538770000000    -0.256437   
O44      O      0.778790000000     0.802400000000     0.446930000000    -0.259448   
O45      O      0.810430000000     0.801600000000     0.410570000000    -0.248425   
O46      O      0.787620000000     0.815250000000     0.549830000000    -0.253878   
O47      O      0.851420000000     0.825400000000     0.517540000000    -0.259662   
O48      O      0.802910000000     0.856110000000     0.512900000000    -0.254466   
O49      O      0.117870000000     0.809300000000     0.445980000000    -0.249423   
O50      O      0.164820000000     0.857850000000     0.507640000000    -0.25018    
O51      O      0.162490000000     0.788780000000     0.420760000000    -0.249167   
O52      O      0.160080000000     0.791430000000     0.534840000000    -0.250498   
O53      O      0.189230000000     0.813790000000     0.524970000000    -0.249778   
O54      O      0.183570000000     0.819010000000     0.412470000000    -0.24967    
O55      O      0.118600000000     0.822290000000     0.512100000000    -0.251938   
O56      O      0.152670000000     0.858480000000     0.441230000000    -0.25547    
O57      O      0.163840000000     0.125650000000     0.459620000000    -0.254499   
O58      O      0.132450000000     0.156530000000     0.527520000000    -0.254592   
O59      O      0.206620000000     0.172180000000     0.453080000000    -0.258944   
O60      O      0.178410000000     0.197300000000     0.542190000000    -0.258583   
O61      O      0.191370000000     0.165210000000     0.566780000000    -0.2484     
O62      O      0.174470000000     0.180900000000     0.422840000000    -0.24857    
O63      O      0.185040000000     0.124370000000     0.517410000000    -0.246468   
O64      O      0.134460000000     0.181420000000     0.475320000000    -0.246308   


