data_structure

_audit_creation_method RASPA-1.0
_audit_creation_date 2023-6-5
_audit_author_name 'Poobodin Mano'

_cell_length_a    56.766
_cell_length_b    56.3659
_cell_length_c    32.0342
_cell_angle_alpha 90.0335
_cell_angle_beta  89.9173
_cell_angle_gamma 90
_cell_volume      102499

_symmetry_cell_setting          triclinic
_symmetry_space_group_name_Hall 'P 1'
_symmetry_space_group_name_H-M  'P 1'
_symmetry_Int_Tables_number     1

_symmetry_equiv_pos_as_xyz 'x,y,z'

loop_
_atom_site_label
_atom_site_type_symbol
_atom_site_fract_x
_atom_site_fract_y
_atom_site_fract_z
_atom_site_charge
C1       C      0.384900000000     0.331520000000     0.961010000000     0.345557   
C2       C      0.313350000000     0.320610000000     0.036580000000     0.345048   
C3       C      0.328100000000     0.390810000000     0.967550000000     0.350117   
C4       C      0.312900000000     0.319000000000     0.888330000000     0.349607   
C5       C      0.328880000000     0.641410000000     0.948230000000     0.34693    
C6       C      0.312320000000     0.714100000000     0.022670000000     0.349111   
C7       C      0.384200000000     0.701220000000     0.956700000000     0.34625    
C8       C      0.312240000000     0.712850000000     0.877190000000     0.34765    
C9       C      0.706800000000     0.311800000000     0.895970000000     0.347599   
C10      C      0.633800000000     0.326530000000     0.968830000000     0.347188   
C11      C      0.707860000000     0.310550000000     0.038000000000     0.346086   
C12      C      0.687730000000     0.384350000000     0.967080000000     0.347029   
C13      C      0.686800000000     0.635430000000     0.981170000000     0.345214   
C14      C      0.705040000000     0.705660000000     0.905240000000     0.344259   
C15      C      0.632680000000     0.694610000000     0.975160000000     0.349644   
C16      C      0.705570000000     0.709320000000     0.050250000000     0.348916   
C17      C      0.812350000000     0.209290000000     0.537570000000     0.344821   
C18      C      0.828920000000     0.134360000000     0.476780000000     0.346515   
C19      C      0.812770000000     0.205110000000     0.393680000000     0.348708   
C20      C      0.885300000000     0.190130000000     0.468900000000     0.345888   
C21      C      0.812570000000     0.811510000000     0.552150000000     0.346603   
C22      C      0.885160000000     0.823990000000     0.480780000000     0.347558   
C23      C      0.814400000000     0.811360000000     0.405240000000     0.349088   
C24      C      0.831080000000     0.883340000000     0.483290000000     0.346469   
C25      C      0.203790000000     0.818190000000     0.376540000000     0.347295   
C26      C      0.133350000000     0.833050000000     0.457200000000     0.349941   
C27      C      0.204040000000     0.818920000000     0.525410000000     0.346545   
C28      C      0.193760000000     0.889660000000     0.440520000000     0.347089   
C29      C      0.209410000000     0.213830000000     0.392160000000     0.346003   
C30      C      0.190950000000     0.139950000000     0.453130000000     0.34599    
C31      C      0.208360000000     0.211830000000     0.533480000000     0.344993   
C32      C      0.134960000000     0.194170000000     0.465100000000     0.347205   
C33      C      0.192750000000     0.951110000000     0.400280000000    -0.0918899  
C34      C      0.201170000000     0.102680000000     0.482720000000     0.0737291  
C35      C      0.187580000000     0.104670000000     0.412840000000     0.0733708  
C36      C      0.203230000000     0.078050000000     0.479870000000    -0.0875678  
C37      C      0.217380000000     0.027590000000     0.457420000000    -0.0333113  
C38      C      0.218110000000     0.002810000000     0.455650000000    -0.0327371  
C39      C      0.198460000000     0.040130000000     0.439710000000    -0.00356862 
C40      C      0.189400000000     0.080060000000     0.408940000000    -0.0882454  
C41      C      0.199930000000     0.990020000000     0.436160000000    -0.00431294 
C42      C      0.206800000000     0.950780000000     0.470950000000    -0.0886009  
C43      C      0.181140000000     0.002590000000     0.418080000000    -0.0327173  
C44      C      0.205240000000     0.926090000000     0.470970000000     0.073029   
C45      C      0.191320000000     0.926290000000     0.401020000000     0.0886363  
C46      C      0.180420000000     0.027340000000     0.419800000000    -0.0331687  
C47      C      0.184000000000     0.914870000000     0.362660000000     0.0513103  
C48      C      0.197190000000     0.066400000000     0.442750000000     0.0507511  
C49      C      0.200070000000     0.963640000000     0.435660000000     0.0530138  
C50      C      0.946930000000     0.819670000000     0.516520000000    -0.0921785  
C51      C      0.099450000000     0.808200000000     0.459390000000     0.0751933  
C52      C      0.095290000000     0.849960000000     0.464620000000     0.0751746  
C53      C      0.075050000000     0.805290000000     0.462720000000    -0.0877736  
C54      C      0.022040000000     0.806860000000     0.445540000000    -0.0331281  
C55      C      0.997480000000     0.805380000000     0.448070000000    -0.0326408  
C56      C      0.034540000000     0.822670000000     0.471270000000    -0.00350874 
C57      C      0.070910000000     0.847700000000     0.468180000000    -0.0881291  
C58      C      0.984930000000     0.819570000000     0.476550000000    -0.00459541 
C59      C      0.945460000000     0.818330000000     0.441640000000    -0.0892217  
C60      C      0.997500000000     0.835040000000     0.502770000000    -0.0325482  
C61      C      0.920940000000     0.819420000000     0.443700000000     0.0727071  
C62      C      0.922270000000     0.820720000000     0.517850000000     0.0884832  
C63      C      0.021990000000     0.836580000000     0.500150000000    -0.0332012  
C64      C      0.911600000000     0.821080000000     0.558940000000     0.0516606  
C65      C      0.060490000000     0.825190000000     0.467360000000     0.0516158  
C66      C      0.958780000000     0.818890000000     0.478250000000     0.0530856  
C67      C      0.828180000000     0.073620000000     0.520590000000    -0.0918646  
C68      C      0.808080000000     0.918660000000     0.484600000000     0.0732067  
C69      C      0.849780000000     0.921010000000     0.485620000000     0.0733258  
C70      C      0.806400000000     0.943410000000     0.485510000000    -0.0880397  
C71      C      0.809090000000     0.995780000000     0.462330000000    -0.0334172  
C72      C      0.808540000000     0.020580000000     0.461790000000    -0.0329164  
C73      C      0.825610000000     0.983640000000     0.487040000000    -0.00369831 
C74      C      0.848740000000     0.945730000000     0.486510000000    -0.0881978  
C75      C      0.824490000000     0.033830000000     0.485970000000    -0.00456056 
C76      C      0.821510000000     0.072190000000     0.446640000000    -0.0891399  
C77      C      0.840790000000     0.021660000000     0.511090000000    -0.0328247  
C78      C      0.822650000000     0.096900000000     0.445410000000     0.0725292  
C79      C      0.829300000000     0.098450000000     0.518600000000     0.0879611  
C80      C      0.841320000000     0.996890000000     0.511660000000    -0.033269   
C81      C      0.832720000000     0.110770000000     0.557810000000     0.051426   
C82      C      0.826890000000     0.957280000000     0.486460000000     0.0505866  
C83      C      0.824540000000     0.060210000000     0.484420000000     0.0526866  
C84      C      0.945920000000     0.210240000000     0.492730000000    -0.0910489  
C85      C      0.098590000000     0.205180000000     0.433900000000     0.0731452  
C86      C      0.098780000000     0.186160000000     0.499880000000     0.0728979  
C87      C      0.074000000000     0.205880000000     0.434150000000    -0.088162   
C88      C      0.022570000000     0.191730000000     0.431100000000    -0.0332496  
C89      C      0.997960000000     0.191280000000     0.431300000000    -0.0328426  
C90      C      0.035200000000     0.196200000000     0.468030000000    -0.00361708 
C91      C      0.074180000000     0.186460000000     0.501060000000    -0.0880422  
C92      C      0.985320000000     0.195190000000     0.468460000000    -0.00418582 
C93      C      0.947050000000     0.177360000000     0.445100000000    -0.0888811  
C94      C      0.997940000000     0.199760000000     0.505360000000    -0.0327229  
C95      C      0.922510000000     0.176620000000     0.445730000000     0.0727959  
C96      C      0.921220000000     0.209110000000     0.493030000000     0.088366   
C97      C      0.022560000000     0.200290000000     0.505140000000    -0.0330285  
C98      C      0.909130000000     0.226560000000     0.518410000000     0.0541509  
C99      C      0.061430000000     0.196290000000     0.467840000000     0.0505018  
C100     C      0.959110000000     0.194270000000     0.468760000000     0.0528241  
C101     C      0.746460000000     0.716220000000     0.817860000000    -0.0915153  
C102     C      0.782290000000     0.811590000000     0.603590000000     0.073268   
C103     C      0.811290000000     0.781300000000     0.603780000000     0.0743953  
C104     C      0.771340000000     0.801510000000     0.638420000000    -0.0880642  
C105     C      0.744640000000     0.767910000000     0.696050000000    -0.0334429  
C106     C      0.734040000000     0.757170000000     0.730620000000    -0.032686   
C107     C      0.769290000000     0.769850000000     0.693450000000    -0.00349682 
C108     C      0.800850000000     0.770810000000     0.638650000000    -0.0879656  
C109     C      0.747840000000     0.748170000000     0.763420000000    -0.00435464 
C110     C      0.716060000000     0.745840000000     0.817730000000    -0.0886672  
C111     C      0.772480000000     0.750280000000     0.760910000000    -0.0324556  
C112     C      0.705930000000     0.734940000000     0.852450000000     0.0732814  
C113     C      0.735980000000     0.705560000000     0.852810000000     0.088037   
C114     C      0.783080000000     0.760960000000     0.726320000000    -0.0331361  
C115     C      0.747270000000     0.684340000000     0.868550000000     0.052115   
C116     C      0.780620000000     0.780880000000     0.656410000000     0.0509681  
C117     C      0.736620000000     0.736600000000     0.800110000000     0.0530844  
C118     C      0.731560000000     0.754330000000     0.120660000000    -0.0917631  
C119     C      0.800290000000     0.777550000000     0.368600000000     0.0731191  
C120     C      0.798370000000     0.815570000000     0.337120000000     0.0732603  
C121     C      0.789860000000     0.767250000000     0.333530000000    -0.0885651  
C122     C      0.779880000000     0.749120000000     0.245870000000    -0.0333144  
C123     C      0.769040000000     0.739140000000     0.210870000000    -0.0328816  
C124     C      0.771970000000     0.770860000000     0.262240000000    -0.00387865 
C125     C      0.787840000000     0.805870000000     0.301610000000    -0.088474   
C126     C      0.750010000000     0.750650000000     0.191470000000    -0.00445593 
C127     C      0.734250000000     0.715700000000     0.151860000000    -0.0891026  
C128     C      0.742080000000     0.772370000000     0.207900000000    -0.032872   
C129     C      0.723310000000     0.706090000000     0.116760000000     0.072721   
C130     C      0.720570000000     0.744280000000     0.085680000000     0.0882087  
C131     C      0.752940000000     0.782370000000     0.242840000000    -0.0332929  
C132     C      0.714270000000     0.760470000000     0.052440000000     0.0511051  
C133     C      0.783420000000     0.781440000000     0.299530000000     0.0507825  
C134     C      0.738470000000     0.740080000000     0.154200000000     0.052922   
C135     C      0.797090000000     0.253690000000     0.618440000000    -0.090844   
C136     C      0.711970000000     0.279070000000     0.849960000000     0.0739648  
C137     C      0.732840000000     0.314880000000     0.838020000000     0.0745107  
C138     C      0.722180000000     0.268850000000     0.814560000000    -0.0880528  
C139     C      0.735630000000     0.257510000000     0.724810000000    -0.0331052  
C140     C      0.745920000000     0.247660000000     0.689120000000    -0.0326994  
C141     C      0.749060000000     0.271410000000     0.752390000000    -0.00338998 
C142     C      0.743430000000     0.305190000000     0.802510000000    -0.0875697  
C143     C      0.769880000000     0.251460000000     0.680180000000    -0.00395502 
C144     C      0.775360000000     0.217740000000     0.630000000000    -0.0884442  
C145     C      0.783310000000     0.265350000000     0.707800000000    -0.0324538  
C146     C      0.786040000000     0.207910000000     0.594800000000     0.0735608  
C147     C      0.807640000000     0.243430000000     0.583140000000     0.0886298  
C148     C      0.773010000000     0.275230000000     0.743450000000    -0.0328092  
C149     C      0.824160000000     0.258150000000     0.560390000000     0.0551282  
C150     C      0.738110000000     0.281930000000     0.790290000000     0.0511565  
C151     C      0.780880000000     0.240840000000     0.642350000000     0.0532033  
C152     C      0.752790000000     0.292360000000     0.115330000000    -0.0916291  
C153     C      0.779070000000     0.211260000000     0.350960000000     0.0733861  
C154     C      0.815850000000     0.227830000000     0.331410000000     0.0737387  
C155     C      0.768400000000     0.221040000000     0.315650000000    -0.0881246  
C156     C      0.748080000000     0.255460000000     0.252240000000    -0.0331918  
C157     C      0.737850000000     0.265890000000     0.217070000000    -0.0328915  
C158     C      0.770690000000     0.245330000000     0.249960000000    -0.00359171 
C159     C      0.805760000000     0.237880000000     0.295830000000    -0.0879188  
C160     C      0.750000000000     0.266460000000     0.178810000000    -0.004365   
C161     C      0.715500000000     0.274650000000     0.132170000000    -0.089079   
C162     C      0.772530000000     0.256200000000     0.176450000000    -0.0329164  
C163     C      0.705690000000     0.285670000000     0.097310000000     0.0723039  
C164     C      0.742530000000     0.303330000000     0.080510000000     0.0878596  
C165     C      0.782740000000     0.245740000000     0.211580000000    -0.0330947  
C166     C      0.757950000000     0.317930000000     0.055240000000     0.0514598  
C167     C      0.781740000000     0.234570000000     0.287550000000     0.0507886  
C168     C      0.739290000000     0.277930000000     0.141590000000     0.0527248  
C169     C      0.682740000000     0.447340000000     0.935620000000    -0.0917224  
C170     C      0.671220000000     0.597840000000     0.000380000000     0.0731327  
C171     C      0.706890000000     0.600020000000     0.961970000000     0.0730972  
C172     C      0.672200000000     0.573090000000     0.999980000000    -0.0880576  
C173     C      0.685310000000     0.521440000000     0.013070000000    -0.0333674  
C174     C      0.685430000000     0.496670000000     0.010990000000    -0.0327991  
C175     C      0.691820000000     0.535130000000     0.978220000000    -0.00346729 
C176     C      0.708420000000     0.575290000000     0.960970000000    -0.0873437  
C177     C      0.692050000000     0.484990000000     0.974000000000    -0.00437103 
C178     C      0.698980000000     0.444630000000     0.004620000000    -0.088856   
C179     C      0.698860000000     0.498670000000     0.939330000000    -0.0326136  
C180     C      0.697700000000     0.419960000000     0.001950000000     0.0729152  
C181     C      0.681620000000     0.422510000000     0.933620000000     0.0882046  
C182     C      0.698750000000     0.523440000000     0.941420000000    -0.033114   
C183     C      0.672350000000     0.412500000000     0.895370000000     0.0512991  
C184     C      0.690890000000     0.561480000000     0.979940000000     0.0505252  
C185     C      0.691370000000     0.458650000000     0.971330000000     0.0529858  
C186     C      0.219560000000     0.806530000000     0.635480000000    -0.0917635  
C187     C      0.282040000000     0.712660000000     0.825810000000     0.0729644  
C188     C      0.310940000000     0.743040000000     0.825480000000     0.0734103  
C189     C      0.270990000000     0.722770000000     0.791170000000    -0.0883107  
C190     C      0.259560000000     0.740770000000     0.704020000000    -0.0334546  
C191     C      0.248710000000     0.751350000000     0.669580000000    -0.0329351  
C192     C      0.268420000000     0.754760000000     0.736780000000    -0.00380078 
C193     C      0.300340000000     0.753620000000     0.790880000000    -0.0884892  
C194     C      0.246440000000     0.776150000000     0.667150000000    -0.00453982 
C195     C      0.239610000000     0.779260000000     0.590080000000    -0.08918    
C196     C      0.255250000000     0.790120000000     0.699970000000    -0.0329309  
C197     C      0.228960000000     0.790160000000     0.555910000000     0.0724128  
C198     C      0.209020000000     0.817220000000     0.600650000000     0.0878571  
C199     C      0.266120000000     0.779550000000     0.734360000000    -0.0332132  
C200     C      0.193270000000     0.836860000000     0.609050000000     0.051264   
C201     C      0.280070000000     0.743560000000     0.773340000000     0.0506243  
C202     C      0.235030000000     0.787430000000     0.630440000000     0.0527832  
C203     C      0.211090000000     0.785650000000     0.276930000000    -0.0915732  
C204     C      0.292090000000     0.746490000000     0.053940000000     0.0743638  
C205     C      0.301380000000     0.712500000000     0.094280000000     0.075022   
C206     C      0.281320000000     0.757130000000     0.088420000000    -0.0881801  
C207     C      0.279410000000     0.754470000000     0.203420000000    -0.0331543  
C208     C      0.268550000000     0.764740000000     0.238190000000    -0.032713   
C209     C      0.269060000000     0.756180000000     0.163690000000    -0.00360355 
C210     C      0.290810000000     0.722640000000     0.129410000000    -0.0880585  
C211     C      0.247050000000     0.776880000000     0.234040000000    -0.00440275 
C212     C      0.248570000000     0.800010000000     0.300770000000    -0.089216   
C213     C      0.236710000000     0.778610000000     0.194310000000    -0.0326462  
C214     C      0.237420000000     0.810010000000     0.335370000000     0.0735287  
C215     C      0.200260000000     0.795790000000     0.312050000000     0.0888221  
C216     C      0.247610000000     0.768410000000     0.159520000000    -0.0330313  
C217     C      0.175000000000     0.792780000000     0.315380000000     0.0527412  
C218     C      0.280560000000     0.745200000000     0.126740000000     0.0513868  
C219     C      0.235420000000     0.787660000000     0.271040000000     0.0533434  
C220     C      0.443940000000     0.712320000000     0.998490000000    -0.0916696  
C221     C      0.596730000000     0.693010000000     0.937280000000     0.0736453  
C222     C      0.596700000000     0.705780000000     0.007830000000     0.0737623  
C223     C      0.572300000000     0.695610000000     0.935250000000    -0.0885759  
C224     C      0.522160000000     0.714630000000     0.934230000000    -0.0335037  
C225     C      0.497570000000     0.715580000000     0.932590000000    -0.033089   
C226     C      0.533630000000     0.705150000000     0.969310000000    -0.00387985 
C227     C      0.572250000000     0.708480000000     0.006950000000    -0.0884384  
C228     C      0.483890000000     0.707000000000     0.965970000000    -0.00449683 
C229     C      0.446320000000     0.700830000000     0.926410000000    -0.0891903  
C230     C      0.495400000000     0.697810000000     0.001280000000    -0.0329579  
C231     C      0.421810000000     0.699660000000     0.925060000000     0.0725195  
C232     C      0.419290000000     0.710990000000     0.996420000000     0.0878016  
C233     C      0.519980000000     0.696930000000     0.002950000000    -0.0332946  
C234     C      0.406530000000     0.717200000000     0.034050000000     0.0504905  
C235     C      0.559720000000     0.703250000000     0.970440000000     0.0508292  
C236     C      0.457730000000     0.706910000000     0.963510000000     0.0525557  
C237     C      0.248050000000     0.222230000000     0.623220000000    -0.0915631  
C238     C      0.281500000000     0.297570000000     0.856900000000     0.0736255  
C239     C      0.313690000000     0.310580000000     0.815610000000     0.0734448  
C240     C      0.270960000000     0.287210000000     0.821980000000    -0.0880917  
C241     C      0.246610000000     0.278190000000     0.739310000000    -0.0332721  
C242     C      0.236410000000     0.267450000000     0.704390000000    -0.0328182  
C243     C      0.271140000000     0.277450000000     0.745410000000    -0.00364497 
C244     C      0.303600000000     0.300520000000     0.780010000000    -0.0882172  
C245     C      0.250480000000     0.255770000000     0.674620000000    -0.00431956 
C246     C      0.220690000000     0.254500000000     0.616780000000    -0.0888871  
C247     C      0.275010000000     0.255200000000     0.680560000000    -0.0329086  
C248     C      0.210680000000     0.243230000000     0.582320000000     0.0720104  
C249     C      0.237780000000     0.211260000000     0.588410000000     0.087655   
C250     C      0.285200000000     0.265850000000     0.715540000000    -0.033021   
C251     C      0.247540000000     0.188540000000     0.576250000000     0.0519367  
C252     C      0.282000000000     0.288580000000     0.782880000000     0.0507892  
C253     C      0.239620000000     0.244060000000     0.637700000000     0.0525559  
C254     C      0.276100000000     0.312320000000     0.130410000000    -0.0911907  
C255     C      0.238290000000     0.213300000000     0.338340000000     0.0732417  
C256     C      0.213080000000     0.246580000000     0.345860000000     0.0730951  
C257     C      0.249230000000     0.223770000000     0.303880000000    -0.088177   
C258     C      0.258380000000     0.243770000000     0.217300000000    -0.0331731  
C259     C      0.268480000000     0.254370000000     0.182140000000    -0.032742   
C260     C      0.253000000000     0.257360000000     0.252870000000    -0.00363823 
C261     C      0.223660000000     0.257590000000     0.311570000000    -0.0881233  
C262     C      0.273460000000     0.278800000000     0.181730000000    -0.00409452 
C263     C      0.301630000000     0.278750000000     0.121350000000    -0.0881699  
C264     C      0.268210000000     0.292360000000     0.217410000000    -0.0327355  
C265     C      0.311060000000     0.289470000000     0.085840000000     0.0731829  
C266     C      0.285850000000     0.322780000000     0.094620000000     0.0886352  
C267     C      0.258080000000     0.281770000000     0.252550000000    -0.033056   
C268     C      0.276600000000     0.345790000000     0.083000000000     0.0527567  
C269     C      0.241890000000     0.246140000000     0.289980000000     0.050751   
C270     C      0.283910000000     0.290120000000     0.144080000000     0.0530411  
C271     C      0.444290000000     0.306710000000     0.980580000000    -0.0914983  
C272     C      0.598570000000     0.314640000000     0.934620000000     0.0737668  
C273     C      0.596700000000     0.331910000000     0.002050000000     0.0734696  
C274     C      0.574030000000     0.313100000000     0.933130000000    -0.0882147  
C275     C      0.522500000000     0.327230000000     0.928000000000    -0.0332632  
C276     C      0.497910000000     0.327860000000     0.926690000000    -0.0328787  
C277     C      0.534300000000     0.320910000000     0.964910000000    -0.00367648 
C278     C      0.572130000000     0.330610000000     0.001630000000    -0.0882707  
C279     C      0.484520000000     0.322150000000     0.962240000000    -0.0044683  
C280     C      0.447370000000     0.343010000000     0.941750000000    -0.0891314  
C281     C      0.496300000000     0.315420000000     0.998950000000    -0.0326768  
C282     C      0.422890000000     0.344830000000     0.941990000000     0.0731264  
C283     C      0.419650000000     0.308880000000     0.980340000000     0.0879996  
C284     C      0.520910000000     0.314840000000     0.000290000000    -0.0333167  
C285     C      0.406530000000     0.290230000000     0.000980000000     0.0518677  
C286     C      0.560470000000     0.321330000000     0.966730000000     0.0508595  
C287     C      0.458390000000     0.323880000000     0.961350000000     0.0529551  
C288     C      0.334980000000     0.453550000000     0.999140000000    -0.0919294  
C289     C      0.345070000000     0.603590000000     0.932580000000     0.0730861  
C290     C      0.307720000000     0.606290000000     0.965490000000     0.0732951  
C291     C      0.344190000000     0.578880000000     0.934370000000    -0.0885742  
C292     C      0.303370000000     0.528510000000     0.948200000000    -0.0334082  
C293     C      0.303050000000     0.503760000000     0.951530000000    -0.0327784  
C294     C      0.324140000000     0.541290000000     0.956350000000    -0.00379988 
C295     C      0.306240000000     0.581560000000     0.967710000000    -0.0882196  
C296     C      0.323440000000     0.491310000000     0.963330000000    -0.00449797 
C297     C      0.312410000000     0.451140000000     0.935930000000    -0.0890319  
C298     C      0.344130000000     0.504130000000     0.971710000000    -0.0328329  
C299     C      0.313840000000     0.426450000000     0.937890000000     0.0736602  
C300     C      0.336140000000     0.428730000000     0.000530000000     0.089351   
C301     C      0.344480000000     0.528810000000     0.968260000000    -0.0332446  
C302     C      0.348200000000     0.418520000000     0.036050000000     0.052815   
C303     C      0.324750000000     0.567550000000     0.952510000000     0.0507056  
C304     C      0.323390000000     0.465000000000     0.966350000000     0.0533754  
Cd1      Cd     0.334460000000     0.339980000000     0.961680000000     0.511838   
Cd2      Cd     0.334020000000     0.692460000000     0.950440000000     0.510166   
Cd3      Cd     0.684330000000     0.333010000000     0.967970000000     0.511629   
Cd4      Cd     0.682840000000     0.686590000000     0.979450000000     0.510866   
Cd5      Cd     0.834410000000     0.185160000000     0.467760000000     0.511678   
Cd6      Cd     0.834900000000     0.832190000000     0.479520000000     0.509929   
Cd7      Cd     0.183780000000     0.839590000000     0.450600000000     0.51286    
Cd8      Cd     0.185810000000     0.190690000000     0.461190000000     0.510218   
H1       H      0.181430000000     0.114590000000     0.385980000000     0.0340485  
H2       H      0.210150000000     0.917060000000     0.499560000000     0.0370465  
H3       H      0.165410000000     0.036420000000     0.406440000000     0.0422478  
H4       H      0.232990000000     0.993680000000     0.469380000000     0.0421341  
H5       H      0.212520000000     0.959750000000     0.499080000000     0.0578554  
H6       H      0.231720000000     0.036940000000     0.472450000000     0.0427253  
H7       H      0.188140000000     0.960670000000     0.372060000000     0.0609747  
H8       H      0.184840000000     0.071810000000     0.379490000000     0.0568799  
H9       H      0.209060000000     0.068170000000     0.506950000000     0.0577608  
H10      H      0.166640000000     0.993290000000     0.403470000000     0.0430724  
H11      H      0.205820000000     0.110980000000     0.512120000000     0.0375031  
H12      H      0.102610000000     0.867730000000     0.465340000000     0.0358336  
H13      H      0.911510000000     0.819450000000     0.414280000000     0.0350909  
H14      H      0.031120000000     0.848720000000     0.520750000000     0.0428854  
H15      H      0.988320000000     0.793130000000     0.427710000000     0.0422519  
H16      H      0.953930000000     0.817820000000     0.411330000000     0.0575417  
H17      H      0.031200000000     0.796020000000     0.422780000000     0.0431065  
H18      H      0.956900000000     0.819470000000     0.545400000000     0.0611824  
H19      H      0.060280000000     0.863580000000     0.471070000000     0.0578379  
H20      H      0.067710000000     0.787560000000     0.462250000000     0.0580847  
H21      H      0.988350000000     0.846400000000     0.524740000000     0.0429647  
H22      H      0.110180000000     0.792390000000     0.456080000000     0.0361789  
H23      H      0.867060000000     0.912820000000     0.485500000000     0.0345277  
H24      H      0.820520000000     0.105210000000     0.415120000000     0.0351995  
H25      H      0.854080000000     0.988120000000     0.531470000000     0.0422901  
H26      H      0.795580000000     0.029380000000     0.442440000000     0.0416838  
H27      H      0.818850000000     0.062530000000     0.417790000000     0.0570389  
H28      H      0.796870000000     0.986130000000     0.442710000000     0.0417893  
H29      H      0.830000000000     0.064770000000     0.550490000000     0.0608388  
H30      H      0.865050000000     0.955710000000     0.486550000000     0.0568577  
H31      H      0.789130000000     0.951580000000     0.485920000000     0.056748   
H32      H      0.853500000000     0.031270000000     0.529770000000     0.0426293  
H33      H      0.791830000000     0.908550000000     0.483940000000     0.0344653  
H34      H      0.107950000000     0.178190000000     0.526010000000     0.0341136  
H35      H      0.914150000000     0.163030000000     0.426910000000     0.0351294  
H36      H      0.031680000000     0.204060000000     0.534060000000     0.0422597  
H37      H      0.988840000000     0.188000000000     0.402200000000     0.0419193  
H38      H      0.956510000000     0.164410000000     0.426540000000     0.0570048  
H39      H      0.031700000000     0.188210000000     0.402050000000     0.0418052  
H40      H      0.954820000000     0.223830000000     0.510800000000     0.0613638  
H41      H      0.065240000000     0.178570000000     0.527520000000     0.0567945  
H42      H      0.064940000000     0.214030000000     0.408120000000     0.0569467  
H43      H      0.988800000000     0.202590000000     0.534640000000     0.0429702  
H44      H      0.107620000000     0.212700000000     0.407140000000     0.0346289  
H45      H      0.826870000000     0.772880000000     0.590910000000     0.0363997  
H46      H      0.690090000000     0.743030000000     0.865020000000     0.0367755  
H47      H      0.802090000000     0.762530000000     0.725570000000     0.0433202  
H48      H      0.715030000000     0.755550000000     0.731300000000     0.0418182  
H49      H      0.707970000000     0.761730000000     0.805240000000     0.0576486  
H50      H      0.733550000000     0.774290000000     0.670980000000     0.0420413  
H51      H      0.762150000000     0.708410000000     0.804210000000     0.0609194  
H52      H      0.808430000000     0.754700000000     0.651240000000     0.0578176  
H53      H      0.755880000000     0.810010000000     0.651450000000     0.0570055  
H54      H      0.783610000000     0.743930000000     0.785970000000     0.0433128  
H55      H      0.774630000000     0.827590000000     0.590650000000     0.0343374  
H56      H      0.801500000000     0.834550000000     0.337500000000     0.0339766  
H57      H      0.720380000000     0.687070000000     0.116740000000     0.0351927  
H58      H      0.746180000000     0.798940000000     0.255080000000     0.0422156  
H59      H      0.775810000000     0.722570000000     0.198630000000     0.0421995  
H60      H      0.739060000000     0.704040000000     0.177320000000     0.0571819  
H61      H      0.794710000000     0.739970000000     0.259750000000     0.0421515  
H62      H      0.735000000000     0.773260000000     0.121420000000     0.0608752  
H63      H      0.783420000000     0.817440000000     0.275800000000     0.0569942  
H64      H      0.786530000000     0.748340000000     0.333410000000     0.0568731  
H65      H      0.727210000000     0.781510000000     0.194140000000     0.0426003  
H66      H      0.804870000000     0.765980000000     0.394370000000     0.0340563  
H67      H      0.737320000000     0.332980000000     0.846250000000     0.0367284  
H68      H      0.781200000000     0.189840000000     0.586900000000     0.0374133  
H69      H      0.783930000000     0.285550000000     0.764380000000     0.0432836  
H70      H      0.734990000000     0.237350000000     0.668190000000     0.0421237  
H71      H      0.763110000000     0.207050000000     0.647850000000     0.0579921  
H72      H      0.717050000000     0.254530000000     0.730460000000     0.0424213  
H73      H      0.801380000000     0.271820000000     0.626980000000     0.0615791  
H74      H      0.755430000000     0.316030000000     0.784400000000     0.0582     
H75      H      0.717810000000     0.250710000000     0.806560000000     0.0571799  
H76      H      0.801900000000     0.268290000000     0.702230000000     0.0440085  
H77      H      0.699760000000     0.268350000000     0.867920000000     0.0346472  
H78      H      0.834460000000     0.230910000000     0.336750000000     0.0352426  
H79      H      0.687140000000     0.282460000000     0.091510000000     0.0352768  
H80      H      0.800010000000     0.237750000000     0.208540000000     0.0422876  
H81      H      0.720600000000     0.273920000000     0.220070000000     0.0422153  
H82      H      0.704480000000     0.263380000000     0.151400000000     0.0570786  
H83      H      0.738440000000     0.255770000000     0.281430000000     0.042182   
H84      H      0.771250000000     0.295390000000     0.122280000000     0.0610801  
H85      H      0.816680000000     0.248470000000     0.275310000000     0.0575251  
H86      H      0.749860000000     0.217760000000     0.310220000000     0.0567031  
H87      H      0.782190000000     0.256020000000     0.147270000000     0.0427869  
H88      H      0.768140000000     0.200880000000     0.371890000000     0.0341736  
H89      H      0.720770000000     0.610060000000     0.946820000000     0.0383087  
H90      H      0.703810000000     0.409980000000     0.028770000000     0.0366023  
H91      H      0.703650000000     0.533420000000     0.913870000000     0.0427885  
H92      H      0.679890000000     0.486680000000     0.038150000000     0.0419862  
H93      H      0.706090000000     0.452640000000     0.032640000000     0.0578487  
H94      H      0.680140000000     0.529870000000     0.042060000000     0.0419767  
H95      H      0.676460000000     0.457840000000     0.909530000000     0.060926   
H96      H      0.723350000000     0.567070000000     0.945620000000     0.0580179  
H97      H      0.658100000000     0.563140000000     0.014590000000     0.0566402  
H98      H      0.704330000000     0.490230000000     0.910510000000     0.0430251  
H99      H      0.656350000000     0.606110000000     0.015910000000     0.0339524  
H100     H      0.326590000000     0.751400000000     0.838090000000     0.0345893  
H101     H      0.233260000000     0.783130000000     0.525310000000     0.0353018  
H102     H      0.272520000000     0.790830000000     0.759270000000     0.0422659  
H103     H      0.241920000000     0.740060000000     0.645010000000     0.0419501  
H104     H      0.251690000000     0.764690000000     0.584720000000     0.0571522  
H105     H      0.261250000000     0.721640000000     0.704720000000     0.0418443  
H106     H      0.215480000000     0.812980000000     0.666580000000     0.0609525  
H107     H      0.308160000000     0.769470000000     0.777730000000     0.0569863  
H108     H      0.255210000000     0.714540000000     0.778910000000     0.0568769  
H109     H      0.254000000000     0.809280000000     0.698870000000     0.0426975  
H110     H      0.274380000000     0.696680000000     0.838860000000     0.033876   
H111     H      0.309010000000     0.694970000000     0.097590000000     0.0357449  
H112     H      0.248510000000     0.819430000000     0.357380000000     0.0357687  
H113     H      0.239070000000     0.769860000000     0.129420000000     0.0425493  
H114     H      0.276850000000     0.762910000000     0.268430000000     0.0422648  
H115     H      0.267410000000     0.802230000000     0.297140000000     0.0578314  
H116     H      0.296040000000     0.745370000000     0.207610000000     0.0428548  
H117     H      0.200560000000     0.775910000000     0.254460000000     0.0613671  
H118     H      0.290380000000     0.712690000000     0.158310000000     0.0576772  
H119     H      0.273880000000     0.774730000000     0.085120000000     0.0574673  
H120     H      0.220270000000     0.788050000000     0.190010000000     0.0433671  
H121     H      0.292350000000     0.756340000000     0.024870000000     0.0343868  
H122     H      0.605740000000     0.709920000000     0.036730000000     0.0346677  
H123     H      0.413960000000     0.694450000000     0.895610000000     0.0355076  
H124     H      0.528270000000     0.689200000000     0.030170000000     0.0422375  
H125     H      0.489280000000     0.723110000000     0.905210000000     0.0416679  
H126     H      0.456270000000     0.696310000000     0.898650000000     0.0567864  
H127     H      0.532200000000     0.721430000000     0.908060000000     0.0419201  
H128     H      0.452370000000     0.717670000000     0.027390000000     0.0605664  
H129     H      0.563240000000     0.714720000000     0.034690000000     0.0572103  
H130     H      0.563290000000     0.691130000000     0.906530000000     0.0566732  
H131     H      0.485420000000     0.690690000000     0.027240000000     0.0425835  
H132     H      0.605780000000     0.686800000000     0.909510000000     0.0340536  
H133     H      0.330410000000     0.319670000000     0.812020000000     0.0341583  
H134     H      0.196110000000     0.252210000000     0.567200000000     0.0351655  
H135     H      0.304120000000     0.264690000000     0.719430000000     0.0421069  
H136     H      0.217440000000     0.268040000000     0.701060000000     0.0419607  
H137     H      0.213770000000     0.271530000000     0.626550000000     0.0570401  
H138     H      0.235260000000     0.287220000000     0.761380000000     0.042033   
H139     H      0.262410000000     0.213500000000     0.639410000000     0.0608033  
H140     H      0.312610000000     0.302350000000     0.750370000000     0.0568049  
H141     H      0.254440000000     0.277870000000     0.825860000000     0.0571733  
H142     H      0.286420000000     0.246640000000     0.658000000000     0.0425032  
H143     H      0.272430000000     0.296030000000     0.886580000000     0.034654   
H144     H      0.198900000000     0.255940000000     0.361490000000     0.0347496  
H145     H      0.324790000000     0.279820000000     0.069480000000     0.0394037  
H146     H      0.254480000000     0.292670000000     0.279680000000     0.0424128  
H147     H      0.271970000000     0.243480000000     0.154960000000     0.0424469  
H148     H      0.308430000000     0.261680000000     0.131130000000     0.0583198  
H149     H      0.254360000000     0.225000000000     0.216290000000     0.0423693  
H150     H      0.262140000000     0.321380000000     0.147240000000     0.0610811  
H151     H      0.217260000000     0.274780000000     0.301620000000     0.0571473  
H152     H      0.263470000000     0.214440000000     0.288450000000     0.0571705  
H153     H      0.272180000000     0.311150000000     0.218380000000     0.0432049  
H154     H      0.244460000000     0.195960000000     0.348060000000     0.0348194  
H155     H      0.605020000000     0.339510000000     0.029420000000     0.0342339  
H156     H      0.415360000000     0.360180000000     0.926570000000     0.0357989  
H157     H      0.529450000000     0.309660000000     0.029080000000     0.042213   
H158     H      0.489370000000     0.332860000000     0.897790000000     0.0420231  
H159     H      0.457610000000     0.356860000000     0.926910000000     0.0575399  
H160     H      0.532270000000     0.332230000000     0.900300000000     0.0424294  
H161     H      0.452450000000     0.291510000000     0.995490000000     0.06091    
H162     H      0.562350000000     0.337400000000     0.028120000000     0.0570436  
H163     H      0.565760000000     0.305480000000     0.905790000000     0.0572249  
H164     H      0.486510000000     0.311110000000     0.026990000000     0.0429624  
H165     H      0.608410000000     0.308240000000     0.907850000000     0.0351103  
H166     H      0.293220000000     0.616550000000     0.978180000000     0.0345143  
H167     H      0.305400000000     0.416570000000     0.912980000000     0.0355626  
H168     H      0.360680000000     0.538130000000     0.975250000000     0.0423637  
H169     H      0.286780000000     0.494400000000     0.945150000000     0.0423794  
H170     H      0.303310000000     0.459290000000     0.909930000000     0.0575247  
H171     H      0.287460000000     0.537610000000     0.938690000000     0.0420529  
H172     H      0.343080000000     0.463960000000     0.023740000000     0.0614385  
H173     H      0.290950000000     0.573530000000     0.982210000000     0.0572151  
H174     H      0.358700000000     0.568710000000     0.921560000000     0.0567343  
H175     H      0.360210000000     0.495060000000     0.980400000000     0.042778   
H176     H      0.360540000000     0.611630000000     0.918600000000     0.033984   
N1       N      0.196950000000     0.913800000000     0.436910000000    -0.178934   
N2       N      0.193270000000     0.115850000000     0.449530000000    -0.179257   
N3       N      0.177160000000     0.904300000000     0.326600000000    -0.085139   
N4       N      0.909270000000     0.821190000000     0.481260000000    -0.179022   
N5       N      0.109440000000     0.830360000000     0.460380000000    -0.179611   
N6       N      0.901740000000     0.821380000000     0.597530000000    -0.0858513  
N7       N      0.826890000000     0.110090000000     0.480740000000    -0.178946   
N8       N      0.829610000000     0.907590000000     0.484590000000    -0.17963    
N9       N      0.835900000000     0.122180000000     0.594670000000    -0.0853514  
N10      N      0.909500000000     0.192190000000     0.469490000000    -0.178494   
N11      N      0.110860000000     0.195270000000     0.466390000000    -0.180018   
N12      N      0.897910000000     0.242960000000     0.542230000000    -0.0801659  
N13      N      0.715730000000     0.715080000000     0.870340000000    -0.178324   
N14      N      0.802080000000     0.801520000000     0.586420000000    -0.179504   
N15      N      0.757930000000     0.664460000000     0.883090000000    -0.0851033  
N16      N      0.716390000000     0.720070000000     0.083790000000    -0.179593   
N17      N      0.804430000000     0.801520000000     0.370390000000    -0.18055    
N18      N      0.708430000000     0.775760000000     0.021430000000    -0.0855982  
N19      N      0.802170000000     0.220400000000     0.571430000000    -0.177966   
N20      N      0.717210000000     0.301920000000     0.861480000000    -0.17931    
N21      N      0.839620000000     0.272040000000     0.539270000000    -0.0803287  
N22      N      0.718870000000     0.300010000000     0.071550000000    -0.179005   
N23      N      0.802590000000     0.214680000000     0.358780000000    -0.180057   
N24      N      0.772510000000     0.331570000000     0.031750000000    -0.0850574  
N25      N      0.688970000000     0.408780000000     0.967050000000    -0.178833   
N26      N      0.688350000000     0.611180000000     0.981300000000    -0.179168   
N27      N      0.663660000000     0.403270000000     0.859440000000    -0.0856893  
N28      N      0.213790000000     0.809010000000     0.560710000000    -0.179153   
N29      N      0.301800000000     0.722780000000     0.842870000000    -0.180086   
N30      N      0.178550000000     0.855250000000     0.617200000000    -0.0855357  
N31      N      0.213500000000     0.807990000000     0.341390000000    -0.178594   
N32      N      0.301980000000     0.724340000000     0.056860000000    -0.179669   
N33      N      0.151320000000     0.789880000000     0.318280000000    -0.084794   
N34      N      0.408230000000     0.704210000000     0.959760000000    -0.179099   
N35      N      0.608800000000     0.697890000000     0.973380000000    -0.180054   
N36      N      0.394680000000     0.723040000000     0.069400000000    -0.0866481  
N37      N      0.219040000000     0.221830000000     0.567870000000    -0.17893    
N38      N      0.302720000000     0.309090000000     0.853720000000    -0.180403   
N39      N      0.256760000000     0.167260000000     0.565080000000    -0.0852289  
N40      N      0.303340000000     0.311250000000     0.072180000000    -0.177906   
N41      N      0.220280000000     0.224570000000     0.358980000000    -0.179764   
N42      N      0.267870000000     0.367350000000     0.072340000000    -0.0848686  
N43      N      0.408950000000     0.328120000000     0.961240000000    -0.178651   
N44      N      0.609780000000     0.324230000000     0.968610000000    -0.179708   
N45      N      0.394350000000     0.272700000000     0.020400000000    -0.0853316  
N46      N      0.326000000000     0.415150000000     0.969240000000    -0.17888    
N47      N      0.327120000000     0.617180000000     0.948520000000    -0.179986   
N48      N      0.359510000000     0.409100000000     0.069430000000    -0.0848191  
O1       O      0.329320000000     0.309750000000     0.016480000000    -0.238998   
O2       O      0.332720000000     0.329240000000     0.886870000000    -0.251377   
O3       O      0.370590000000     0.317260000000     0.977970000000    -0.237235   
O4       O      0.340260000000     0.379140000000     0.993490000000    -0.239545   
O5       O      0.318570000000     0.378620000000     0.938870000000    -0.248574   
O6       O      0.375590000000     0.349520000000     0.944060000000    -0.247463   
O7       O      0.307310000000     0.340460000000     0.021560000000    -0.239406   
O8       O      0.303090000000     0.318470000000     0.923810000000    -0.251283   
O9       O      0.321450000000     0.693590000000     0.024070000000    -0.243945   
O10      O      0.330340000000     0.721860000000     0.894010000000    -0.247531   
O11      O      0.313000000000     0.654660000000     0.963430000000    -0.245928   
O12      O      0.370450000000     0.703390000000     0.987590000000    -0.243373   
O13      O      0.374410000000     0.695310000000     0.922700000000    -0.244783   
O14      O      0.346790000000     0.651920000000     0.933600000000    -0.250797   
O15      O      0.313300000000     0.724530000000     0.987680000000    -0.250301   
O16      O      0.304300000000     0.694210000000     0.894270000000    -0.251662   
O17      O      0.646420000000     0.320050000000     0.938220000000    -0.245836   
O18      O      0.694300000000     0.372100000000     0.998130000000    -0.246215   
O19      O      0.692290000000     0.300420000000     0.918410000000    -0.247168   
O20      O      0.686270000000     0.307070000000     0.030030000000    -0.248961   
O21      O      0.718390000000     0.324440000000     0.013210000000    -0.2417     
O22      O      0.710970000000     0.332940000000     0.907180000000    -0.244887   
O23      O      0.644720000000     0.335720000000     0.999290000000    -0.248726   
O24      O      0.679780000000     0.372570000000     0.936570000000    -0.24166    
O25      O      0.713390000000     0.688120000000     0.924960000000    -0.23661    
O26      O      0.698160000000     0.720770000000     0.019030000000    -0.24427    
O27      O      0.702060000000     0.648350000000     0.963370000000    -0.239752   
O28      O      0.644320000000     0.686770000000     0.944300000000    -0.248594   
O29      O      0.644410000000     0.698890000000     0.007960000000    -0.248825   
O30      O      0.669850000000     0.646300000000     0.998420000000    -0.249803   
O31      O      0.686180000000     0.714250000000     0.920160000000    -0.24425    
O32      O      0.702300000000     0.687120000000     0.048630000000    -0.251523   
O33      O      0.834520000000     0.147710000000     0.506970000000    -0.23992    
O34      O      0.871910000000     0.202810000000     0.491280000000    -0.235134   
O35      O      0.807150000000     0.188180000000     0.527490000000    -0.24385    
O36      O      0.801110000000     0.193070000000     0.419910000000    -0.250549   
O37      O      0.834420000000     0.207810000000     0.401790000000    -0.250259   
O38      O      0.827670000000     0.219170000000     0.514700000000    -0.235332   
O39      O      0.825800000000     0.144800000000     0.442150000000    -0.247729   
O40      O      0.874900000000     0.175130000000     0.445910000000    -0.249019   
O41      O      0.873230000000     0.827520000000     0.513640000000    -0.237874   
O42      O      0.812970000000     0.870210000000     0.481760000000    -0.243723   
O43      O      0.830640000000     0.802490000000     0.535250000000    -0.24445    
O44      O      0.819900000000     0.799030000000     0.436760000000    -0.252308   
O45      O      0.818530000000     0.833370000000     0.408090000000    -0.251228   
O46      O      0.804790000000     0.830280000000     0.535350000000    -0.248193   
O47      O      0.873480000000     0.824070000000     0.447010000000    -0.249065   
O48      O      0.850710000000     0.872680000000     0.483290000000    -0.250039   
O49      O      0.147200000000     0.815530000000     0.453790000000    -0.245101   
O50      O      0.199390000000     0.878410000000     0.473300000000    -0.245227   
O51      O      0.182060000000     0.816800000000     0.385220000000    -0.238797   
O52      O      0.208760000000     0.811270000000     0.489160000000    -0.249434   
O53      O      0.189850000000     0.836210000000     0.526650000000    -0.241318   
O54      O      0.216190000000     0.829620000000     0.402630000000    -0.24698    
O55      O      0.142970000000     0.853300000000     0.457530000000    -0.248141   
O56      O      0.184000000000     0.877350000000     0.412390000000    -0.240817   
O57      O      0.183670000000     0.152710000000     0.423230000000    -0.248695   
O58      O      0.146920000000     0.185390000000     0.494650000000    -0.251389   
O59      O      0.215480000000     0.193490000000     0.405030000000    -0.248533   
O60      O      0.215630000000     0.192880000000     0.516720000000    -0.239239   
O61      O      0.190500000000     0.221120000000     0.516300000000    -0.249964   
O62      O      0.192490000000     0.223500000000     0.411570000000    -0.247033   
O63      O      0.195820000000     0.150810000000     0.486680000000    -0.241228   
O64      O      0.146640000000     0.201570000000     0.434010000000    -0.247636   


