data_structure

_audit_creation_method RASPA-1.0
_audit_creation_date 2023-5-22
_audit_author_name 'Poobodin Mano'

_cell_length_a    49.7335
_cell_length_b    41.8804
_cell_length_c    46.2769
_cell_angle_alpha 90
_cell_angle_beta  90
_cell_angle_gamma 90
_cell_volume      96388.3

_symmetry_cell_setting          triclinic
_symmetry_space_group_name_Hall 'P 1'
_symmetry_space_group_name_H-M  'P 1'
_symmetry_Int_Tables_number     1

_symmetry_equiv_pos_as_xyz 'x,y,z'

loop_
_atom_site_label
_atom_site_type_symbol
_atom_site_fract_x
_atom_site_fract_y
_atom_site_fract_z
_atom_site_charge
Br1      Br     0.023440000000     0.059500000000     0.612930000000    -0.190094   
Br2      Br     0.777860000000     0.811540000000     0.369730000000    -0.197006   
Br3      Br     0.262270000000     0.423680000000     0.454330000000    -0.19895    
Br4      Br     0.389520000000     0.407340000000     0.460770000000    -0.200343   
Br5      Br     0.772630000000     0.021900000000     0.360890000000    -0.211281   
Br6      Br     0.368530000000     0.300410000000     0.346610000000    -0.205706   
Br7      Br     0.101140000000     0.049880000000     0.658380000000    -0.192491   
Br8      Br     0.526370000000     0.664930000000     0.708710000000    -0.209837   
Br9      Br     0.562560000000     0.056130000000     0.078630000000    -0.212703   
Br10     Br     0.877780000000     0.807230000000     0.352320000000    -0.197608   
Br11     Br     0.144930000000     0.663280000000     0.025040000000    -0.213296   
Br12     Br     0.286790000000     0.526290000000     0.352610000000    -0.203547   
Br13     Br     0.997250000000     0.240900000000     0.617270000000    -0.2102     
Br14     Br     0.737070000000     0.424300000000     0.912480000000    -0.211751   
Br15     Br     0.635620000000     0.560700000000     0.618670000000    -0.208579   
Br16     Br     0.877110000000     0.534410000000     0.879330000000    -0.209316   
C1       C      0.866490000000     0.461570000000     0.901770000000     0.355732   
C2       C      0.798930000000     0.458530000000     0.825490000000     0.349882   
C3       C      0.867790000000     0.384490000000     0.829700000000     0.347481   
C4       C      0.795170000000     0.389480000000     0.902910000000     0.355364   
C5       C      0.045920000000     0.634070000000     0.080980000000     0.348036   
C6       C      0.120160000000     0.631780000000     0.152400000000     0.346933   
C7       C      0.121660000000     0.702700000000     0.080590000000     0.354203   
C8       C      0.047470000000     0.704720000000     0.152930000000     0.346396   
C9       C      0.299240000000     0.881670000000     0.904400000000     0.347233   
C10      C      0.298500000000     0.951880000000     0.829140000000     0.346174   
C11      C      0.370070000000     0.953290000000     0.904270000000     0.346254   
C12      C      0.370550000000     0.881980000000     0.829220000000     0.347239   
C13      C      0.618300000000     0.210100000000     0.079560000000     0.348779   
C14      C      0.547610000000     0.132040000000     0.080880000000     0.35438    
C15      C      0.618870000000     0.134940000000     0.151460000000     0.346135   
C16      C      0.545530000000     0.206800000000     0.151140000000     0.348689   
C17      C      0.293710000000     0.451980000000     0.332450000000     0.355259   
C18      C      0.367520000000     0.446960000000     0.404750000000     0.356525   
C19      C      0.291230000000     0.380590000000     0.404410000000     0.355254   
C20      C      0.365090000000     0.376500000000     0.331580000000     0.354398   
C21      C      0.543420000000     0.630450000000     0.578920000000     0.347429   
C22      C      0.616610000000     0.703980000000     0.575610000000     0.346448   
C23      C      0.545120000000     0.702270000000     0.650100000000     0.354448   
C24      C      0.620430000000     0.630710000000     0.645150000000     0.356052   
C25      C      0.795450000000     0.957270000000     0.329940000000     0.354823   
C26      C      0.868640000000     0.880530000000     0.330270000000     0.354286   
C27      C      0.869100000000     0.953010000000     0.400810000000     0.347953   
C28      C      0.793530000000     0.880990000000     0.397110000000     0.354274   
C29      C      0.043230000000     0.202370000000     0.653650000000     0.358221   
C30      C      0.116100000000     0.125690000000     0.654220000000     0.353627   
C31      C      0.046000000000     0.124990000000     0.583340000000     0.35571    
C32      C      0.116310000000     0.201210000000     0.583350000000     0.349091   
C33      C      0.000420000000     0.061470000000     0.557180000000    -0.123861   
C34      C      0.897640000000     0.997630000000     0.409150000000     0.0765077  
C35      C      0.893380000000     0.957380000000     0.444880000000     0.0762021  
C36      C      0.915490000000     0.014590000000     0.426690000000    -0.0867152  
C37      C      0.939910000000     0.054100000000     0.474950000000    -0.0329251  
C38      C      0.957400000000     0.070870000000     0.493050000000    -0.0284056  
C39      C      0.941160000000     0.020610000000     0.473160000000    -0.00104423 
C40      C      0.911090000000     0.973740000000     0.463010000000    -0.0863276  
C41      C      0.976510000000     0.054550000000     0.509870000000    -0.00840288 
C42      C      0.007240000000     0.100570000000     0.519970000000    -0.0969953  
C43      C      0.977800000000     0.021090000000     0.508090000000    -0.0282877  
C44      C      0.024340000000     0.117210000000     0.538480000000     0.0832309  
C45      C      0.017610000000     0.078650000000     0.575480000000     0.190744   
C46      C      0.960360000000     0.004310000000     0.489910000000    -0.0328679  
C47      C      0.922400000000     0.002750000000     0.454040000000     0.0521304  
C48      C      0.994970000000     0.072410000000     0.529250000000     0.0719021  
C49      C      0.749300000000     0.815670000000     0.422290000000    -0.124626   
C50      C      0.641460000000     0.751320000000     0.565950000000     0.0746859  
C51      C      0.642220000000     0.708500000000     0.532440000000     0.0751619  
C52      C      0.658600000000     0.769160000000     0.548320000000    -0.0872609  
C53      C      0.682270000000     0.807740000000     0.498800000000    -0.033292   
C54      C      0.699600000000     0.825100000000     0.480960000000    -0.0287419  
C55      C      0.686250000000     0.774860000000     0.503200000000    -0.00150069 
C56      C      0.659400000000     0.725650000000     0.514320000000    -0.0869677  
C57      C      0.721320000000     0.810000000000     0.467130000000    -0.00847926 
C58      C      0.748490000000     0.858950000000     0.456270000000    -0.0970791  
C59      C      0.725300000000     0.777120000000     0.471540000000    -0.0283407  
C60      C      0.766220000000     0.875760000000     0.438590000000     0.0822734  
C61      C      0.767100000000     0.832990000000     0.404830000000     0.19105    
C62      C      0.707960000000     0.759760000000     0.489360000000    -0.032634   
C63      C      0.667840000000     0.756360000000     0.522170000000     0.051871   
C64      C      0.739890000000     0.828470000000     0.448300000000     0.0718151  
C65      C      0.242330000000     0.361170000000     0.462010000000    -0.124338   
C66      C      0.147480000000     0.204010000000     0.544490000000     0.0753457  
C67      C      0.135940000000     0.250940000000     0.570320000000     0.075784   
C68      C      0.164650000000     0.221460000000     0.526580000000    -0.087147   
C69      C      0.210730000000     0.261070000000     0.502960000000    -0.0328629  
C70      C      0.227780000000     0.278900000000     0.485170000000    -0.0283986  
C71      C      0.185720000000     0.273430000000     0.511690000000    -0.00132906 
C72      C      0.152970000000     0.269110000000     0.552840000000    -0.0866979  
C73      C      0.220250000000     0.309530000000     0.475760000000    -0.00818852 
C74      C      0.252220000000     0.314290000000     0.434140000000    -0.0961862  
C75      C      0.195260000000     0.321900000000     0.484470000000    -0.0283571  
C76      C      0.269410000000     0.332440000000     0.416920000000     0.0832141  
C77      C      0.259770000000     0.378950000000     0.444490000000     0.191787   
C78      C      0.178180000000     0.304040000000     0.502190000000    -0.0325579  
C79      C      0.167570000000     0.254440000000     0.530600000000     0.0520828  
C80      C      0.238480000000     0.328570000000     0.457040000000     0.0721956  
C81      C      0.413400000000     0.468330000000     0.464620000000    -0.124358   
C82      C      0.514410000000     0.625510000000     0.538340000000     0.0759079  
C83      C      0.519900000000     0.581920000000     0.570500000000     0.0771378  
C84      C      0.496890000000     0.607560000000     0.521240000000    -0.086903   
C85      C      0.449210000000     0.569870000000     0.498550000000    -0.0327855  
C86      C      0.432140000000     0.551510000000     0.481270000000    -0.0280967  
C87      C      0.472500000000     0.556390000000     0.510710000000    -0.000920006
C88      C      0.502480000000     0.563290000000     0.553900000000    -0.0857515  
C89      C      0.437950000000     0.519220000000     0.475730000000    -0.00820798 
C90      C      0.408830000000     0.512550000000     0.432000000000    -0.0965568  
C91      C      0.461180000000     0.505710000000     0.487960000000    -0.0279236  
C92      C      0.391690000000     0.494140000000     0.414980000000     0.0836619  
C93      C      0.396090000000     0.450240000000     0.447200000000     0.192074   
C94      C      0.478260000000     0.524080000000     0.505240000000    -0.0324146  
C95      C      0.490790000000     0.576000000000     0.528870000000     0.0525502  
C96      C      0.419850000000     0.499780000000     0.457220000000     0.0724924  
C97      C      0.749540000000     0.021150000000     0.305190000000    -0.125296   
C98      C      0.647920000000     0.090450000000     0.158260000000     0.0753753  
C99      C      0.641230000000     0.127500000000     0.196340000000     0.0749903  
C100     C      0.665420000000     0.072610000000     0.175510000000    -0.0862201  
C101     C      0.688580000000     0.030490000000     0.223080000000    -0.033398   
C102     C      0.705960000000     0.013110000000     0.240860000000    -0.0287225  
C103     C      0.689710000000     0.064010000000     0.222420000000    -0.00147148 
C104     C      0.658710000000     0.110330000000     0.214110000000    -0.0871904  
C105     C      0.724930000000     0.028840000000     0.258330000000    -0.00885372 
C106     C      0.754850000000     0.981800000000     0.267930000000    -0.0972464  
C107     C      0.726140000000     0.062380000000     0.257530000000    -0.0286858  
C108     C      0.772030000000     0.964760000000     0.286070000000     0.0811775  
C109     C      0.766910000000     0.003680000000     0.323050000000     0.189983   
C110     C      0.708700000000     0.079760000000     0.239830000000    -0.0333766  
C111     C      0.671060000000     0.082530000000     0.203780000000     0.0516385  
C112     C      0.743350000000     0.010370000000     0.277370000000     0.0709892  
C113     C      0.404180000000     0.309980000000     0.299970000000    -0.125276   
C114     C      0.524260000000     0.255510000000     0.164470000000     0.0742458  
C115     C      0.513850000000     0.207730000000     0.189580000000     0.0746028  
C116     C      0.506490000000     0.272690000000     0.181950000000    -0.0874851  
C117     C      0.456150000000     0.298370000000     0.211340000000    -0.0337912  
C118     C      0.438290000000     0.314930000000     0.229220000000    -0.0289732  
C119     C      0.473330000000     0.274930000000     0.222840000000    -0.00182684 
C120     C      0.495990000000     0.224170000000     0.207480000000    -0.0875413  
C121     C      0.437230000000     0.308480000000     0.259020000000    -0.00902313 
C122     C      0.413630000000     0.358590000000     0.274480000000    -0.0977098  
C123     C      0.454520000000     0.285160000000     0.270520000000    -0.0285767  
C124     C      0.395750000000     0.374580000000     0.292630000000     0.080867   
C125     C      0.386300000000     0.326510000000     0.317970000000     0.190486   
C126     C      0.472330000000     0.268570000000     0.252650000000    -0.0330983  
C127     C      0.492150000000     0.257060000000     0.203840000000     0.0514092  
C128     C      0.418110000000     0.325920000000     0.278050000000     0.0712485  
C129     C      0.148140000000     0.057650000000     0.691830000000    -0.12446    
C130     C      0.285070000000     0.000250000000     0.806410000000     0.0737239  
C131     C      0.259560000000     0.953070000000     0.799350000000     0.0737662  
C132     C      0.267340000000     0.017490000000     0.788940000000    -0.0874416  
C133     C      0.235100000000     0.043490000000     0.738440000000    -0.0337747  
C134     C      0.216960000000     0.060550000000     0.721290000000    -0.0290867  
C135     C      0.225880000000     0.020240000000     0.758010000000    -0.00175729 
C136     C      0.241450000000     0.969560000000     0.781750000000    -0.0871611  
C137     C      0.189180000000     0.054730000000     0.723250000000    -0.009      
C138     C      0.173000000000     0.105730000000     0.700890000000    -0.0977763  
C139     C      0.179960000000     0.031460000000     0.742760000000    -0.0287732  
C140     C      0.154650000000     0.122490000000     0.683890000000     0.0805607  
C141     C      0.129970000000     0.074940000000     0.674750000000     0.188621   
C142     C      0.198080000000     0.014440000000     0.759950000000    -0.033324   
C143     C      0.245150000000     0.002210000000     0.776400000000     0.0508838  
C144     C      0.169890000000     0.072930000000     0.705070000000     0.0707901  
C145     C      0.500460000000     0.724820000000     0.710660000000    -0.125634   
C146     C      0.396950000000     0.878280000000     0.786460000000     0.0737389  
C147     C      0.394680000000     0.834410000000     0.818750000000     0.0744316  
C148     C      0.413980000000     0.861100000000     0.768130000000    -0.0874643  
C149     C      0.461780000000     0.825430000000     0.742640000000    -0.033708   
C150     C      0.478980000000     0.807530000000     0.725060000000    -0.0290247  
C151     C      0.439490000000     0.811020000000     0.756030000000    -0.00183898 
C152     C      0.411640000000     0.816580000000     0.800950000000    -0.0875258  
C153     C      0.474280000000     0.774820000000     0.720480000000    -0.00917082 
C154     C      0.503110000000     0.767770000000     0.676460000000    -0.0979403  
C155     C      0.451840000000     0.760500000000     0.733640000000    -0.0288051  
C156     C      0.520450000000     0.749320000000     0.659660000000     0.0802505  
C157     C      0.517950000000     0.706710000000     0.693500000000     0.189733   
C158     C      0.434660000000     0.778380000000     0.751190000000    -0.0331825  
C159     C      0.421490000000     0.829820000000     0.775240000000     0.0512879  
C160     C      0.492840000000     0.755580000000     0.702280000000     0.0710098  
C161     C      0.516250000000     0.063110000000     0.043940000000    -0.125622   
C162     C      0.382840000000     0.002450000000     0.926020000000     0.073539   
C163     C      0.408130000000     0.955570000000     0.935300000000     0.0736185  
C164     C      0.400020000000     0.020300000000     0.943620000000    -0.08755    
C165     C      0.449090000000     0.054620000000     0.967530000000    -0.0340553  
C166     C      0.466740000000     0.072090000000     0.984920000000    -0.0291531  
C167     C      0.440370000000     0.024100000000     0.976020000000    -0.0019256  
C168     C      0.425640000000     0.972660000000     0.953120000000    -0.0873673  
C169     C      0.476040000000     0.059500000000     0.011260000000    -0.009392   
C170     C      0.491760000000     0.111010000000     0.033160000000    -0.0982229  
C171     C      0.467240000000     0.029010000000     0.019780000000    -0.0288156  
C172     C      0.509710000000     0.128140000000     0.050340000000     0.0802183  
C173     C      0.534040000000     0.080780000000     0.061160000000     0.189764   
C174     C      0.449650000000     0.011500000000     0.002350000000    -0.0337901  
C175     C      0.421760000000     0.005450000000     0.957410000000     0.0507375  
C176     C      0.494880000000     0.078100000000     0.029720000000     0.0707193  
C177     C      0.910260000000     0.813990000000     0.302690000000    -0.124786   
C178     C      0.024170000000     0.752920000000     0.163470000000     0.073947   
C179     C      0.019120000000     0.707990000000     0.194180000000     0.0739827  
C180     C      0.006720000000     0.770700000000     0.180800000000    -0.0873368  
C181     C      0.957190000000     0.795720000000     0.211910000000    -0.0336516  
C182     C      0.939560000000     0.812940000000     0.229510000000    -0.0287496  
C183     C      0.976570000000     0.775350000000     0.224140000000    -0.00168922 
C184     C      0.001610000000     0.725080000000     0.211990000000    -0.0871747  
C185     C      0.940880000000     0.810180000000     0.259760000000    -0.00896647 
C186     C      0.915440000000     0.859970000000     0.272260000000    -0.097859   
C187     C      0.960310000000     0.789890000000     0.271990000000    -0.0286593  
C188     C      0.897630000000     0.876590000000     0.290010000000     0.0810809  
C189     C      0.892360000000     0.831100000000     0.320220000000     0.190271   
C190     C      0.977950000000     0.772680000000     0.254390000000    -0.0331588  
C191     C      0.995200000000     0.756840000000     0.205420000000     0.051116   
C192     C      0.921980000000     0.828300000000     0.278480000000     0.0713908  
C193     C      0.169270000000     0.724060000000     0.022310000000    -0.125716   
C194     C      0.271680000000     0.878420000000     0.946330000000     0.0737275  
C195     C      0.276330000000     0.833460000000     0.915610000000     0.0743959  
C196     C      0.254510000000     0.861280000000     0.964530000000    -0.0877497  
C197     C      0.206590000000     0.824810000000     0.988790000000    -0.0338958  
C198     C      0.189100000000     0.806980000000     0.006070000000    -0.0290207  
C199     C      0.229860000000     0.810770000000     0.977110000000    -0.00194636 
C200     C      0.259290000000     0.815620000000     0.933320000000    -0.0876564  
C201     C      0.194470000000     0.774690000000     0.012080000000    -0.00937071 
C202     C      0.163580000000     0.768430000000     0.054550000000    -0.0981553  
C203     C      0.217880000000     0.760750000000     0.000650000000    -0.0288811  
C204     C      0.145790000000     0.750100000000     0.070910000000     0.0801516  
C205     C      0.151320000000     0.706070000000     0.039040000000     0.189588   
C206     C      0.235360000000     0.778570000000     0.983370000000    -0.0335039  
C207     C      0.248140000000     0.829450000000     0.958140000000     0.051207   
C208     C      0.175570000000     0.755490000000     0.029920000000     0.070833   
C209     C      0.254290000000     0.519430000000     0.303060000000    -0.125363   
C210     C      0.142090000000     0.582790000000     0.163310000000     0.0750478  
C211     C      0.149170000000     0.628100000000     0.193080000000     0.0747791  
C212     C      0.159080000000     0.564510000000     0.180750000000    -0.0870573  
C213     C      0.207690000000     0.537350000000     0.212160000000    -0.0336124  
C214     C      0.224670000000     0.519600000000     0.230080000000    -0.0287968  
C215     C      0.189230000000     0.559160000000     0.224000000000    -0.00166669 
C216     C      0.166240000000     0.610520000000     0.210980000000    -0.0873874  
C217     C      0.223600000000     0.523270000000     0.260260000000    -0.00906485 
C218     C      0.247370000000     0.472680000000     0.274010000000    -0.0977909  
C219     C      0.205010000000     0.544920000000     0.272100000000    -0.0285866  
C220     C      0.264660000000     0.455830000000     0.292200000000     0.0811006  
C221     C      0.271620000000     0.502080000000     0.321020000000     0.190774   
C222     C      0.188040000000     0.562650000000     0.254190000000    -0.0330439  
C223     C      0.171330000000     0.578290000000     0.204990000000     0.0517028  
C224     C      0.241970000000     0.504860000000     0.279340000000     0.0715216  
C225     C      0.987540000000     0.255510000000     0.675860000000    -0.125527   
C226     C      0.909190000000     0.378360000000     0.804640000000     0.0745151  
C227     C      0.877230000000     0.336350000000     0.804370000000     0.0746508  
C228     C      0.926670000000     0.360340000000     0.787560000000    -0.0869985  
C229     C      0.965360000000     0.309650000000     0.765670000000    -0.033622   
C230     C      0.982600000000     0.291730000000     0.748170000000    -0.0287044  
C231     C      0.937560000000     0.310250000000     0.760210000000    -0.00151102 
C232     C      0.894200000000     0.317700000000     0.787210000000    -0.087312   
C233     C      0.972440000000     0.274090000000     0.724740000000    -0.00902432 
C234     C      0.011770000000     0.237480000000     0.717630000000    -0.0976151  
C235     C      0.944620000000     0.274600000000     0.719360000000    -0.0282784  
C236     C      0.028800000000     0.220100000000     0.699570000000     0.0818333  
C237     C      0.004930000000     0.237950000000     0.658100000000     0.19112    
C238     C      0.927370000000     0.292430000000     0.736910000000    -0.0330186  
C239     C      0.919270000000     0.329630000000     0.778590000000     0.0515287  
C240     C      0.990810000000     0.255430000000     0.705860000000     0.07169    
C241     C      0.734480000000     0.366970000000     0.944360000000    -0.125856   
C242     C      0.653570000000     0.248130000000     0.075120000000     0.0741756  
C243     C      0.634090000000     0.225440000000     0.033100000000     0.0744415  
C244     C      0.671190000000     0.266160000000     0.058200000000    -0.0876167  
C245     C      0.716030000000     0.286210000000     0.017260000000    -0.0337532  
C246     C      0.733510000000     0.303970000000     0.999900000000    -0.0290604  
C247     C      0.688800000000     0.282830000000     0.009660000000    -0.00191362 
C248     C      0.651340000000     0.243210000000     0.015530000000    -0.087475   
C249     C      0.724140000000     0.318860000000     0.974610000000    -0.00935477 
C250     C      0.768580000000     0.326930000000     0.950090000000    -0.0982505  
C251     C      0.696910000000     0.315520000000     0.967040000000    -0.0287576  
C252     C      0.785530000000     0.344830000000     0.932370000000     0.0804979  
C253     C      0.751860000000     0.384640000000     0.926690000000     0.189868   
C254     C      0.679460000000     0.297670000000     0.984330000000    -0.0332644  
C255     C      0.670220000000     0.263850000000     0.028020000000     0.0513862  
C256     C      0.742660000000     0.337840000000     0.956160000000     0.0711102  
C257     C      0.665310000000     0.566060000000     0.670400000000    -0.125271   
C258     C      0.774950000000     0.505910000000     0.813850000000     0.0789707  
C259     C      0.773930000000     0.461760000000     0.781780000000     0.0773546  
C260     C      0.758040000000     0.523240000000     0.795570000000    -0.0852684  
C261     C      0.734230000000     0.560050000000     0.745130000000    -0.0330735  
C262     C      0.716570000000     0.576950000000     0.727300000000    -0.0279205  
C263     C      0.730230000000     0.527350000000     0.750490000000    -0.000560646
C264     C      0.756950000000     0.478390000000     0.763030000000    -0.0864803  
C265     C      0.694490000000     0.561550000000     0.714430000000    -0.00856949 
C266     C      0.667190000000     0.610330000000     0.703260000000    -0.0971676  
C267     C      0.690570000000     0.528810000000     0.719700000000    -0.0276138  
C268     C      0.649000000000     0.626700000000     0.685760000000     0.0826926  
C269     C      0.647060000000     0.582940000000     0.653110000000     0.191281   
C270     C      0.708240000000     0.511910000000     0.737510000000    -0.0324065  
C271     C      0.748710000000     0.509490000000     0.769870000000     0.0531098  
C272     C      0.675470000000     0.579570000000     0.695760000000     0.0723211  
C273     C      0.907730000000     0.527910000000     0.930310000000    -0.125792   
C274     C      0.020910000000     0.587000000000     0.070870000000     0.0752888  
C275     C      0.017470000000     0.631810000000     0.039750000000     0.076045   
C276     C      0.002930000000     0.569880000000     0.053620000000    -0.0868917  
C277     C      0.952900000000     0.546730000000     0.022150000000    -0.0337798  
C278     C      0.935110000000     0.529840000000     0.004450000000    -0.0286761  
C279     C      0.973090000000     0.566020000000     0.010020000000    -0.00138691 
C280     C      0.999490000000     0.615350000000     0.021990000000    -0.0868244  
C281     C      0.937130000000     0.531830000000     0.974200000000    -0.0092304  
C282     C      0.910590000000     0.482700000000     0.962030000000    -0.0980919  
C283     C      0.957370000000     0.551070000000     0.962080000000    -0.0283362  
C284     C      0.893130000000     0.466130000000     0.943830000000     0.0809609  
C285     C      0.890200000000     0.510840000000     0.912340000000     0.190743   
C286     C      0.975120000000     0.567980000000     0.979770000000    -0.0331285  
C287     C      0.992030000000     0.583980000000     0.028800000000     0.051847   
C288     C      0.918230000000     0.513910000000     0.955300000000     0.0714949  
Cd1      Cd     0.832300000000     0.422850000000     0.865090000000     0.514801   
Cd2      Cd     0.083770000000     0.668460000000     0.116770000000     0.513038   
Cd3      Cd     0.334710000000     0.917290000000     0.866750000000     0.50979    
Cd4      Cd     0.582940000000     0.171770000000     0.115380000000     0.512151   
Cd5      Cd     0.329460000000     0.413860000000     0.367940000000     0.519964   
Cd6      Cd     0.581330000000     0.667270000000     0.612520000000     0.515538   
Cd7      Cd     0.831760000000     0.918600000000     0.364380000000     0.517462   
Cd8      Cd     0.080290000000     0.164370000000     0.619260000000     0.516822   
H1       H      0.885000000000     0.935090000000     0.452710000000     0.0386495  
H2       H      0.033250000000     0.138980000000     0.530130000000     0.0383705  
H3       H      0.962180000000     0.978580000000     0.488710000000     0.0458269  
H4       H      0.955660000000     0.096610000000     0.494260000000     0.0451935  
H5       H      0.003880000000     0.109650000000     0.498350000000     0.0628035  
H6       H      0.925080000000     0.067370000000     0.462730000000     0.0457827  
H7       H      0.991060000000     0.039740000000     0.564960000000     0.0861984  
H8       H      0.915550000000     0.963900000000     0.484110000000     0.0604596  
H9       H      0.924020000000     0.036670000000     0.418690000000     0.0594612  
H10      H      0.992560000000     0.007870000000     0.520460000000     0.0472523  
H11      H      0.892840000000     0.007590000000     0.388140000000     0.0381631  
H12      H      0.636120000000     0.684840000000     0.525530000000     0.0381625  
H13      H      0.772340000000     0.899240000000     0.445990000000     0.0386534  
H14      H      0.711850000000     0.734580000000     0.492670000000     0.0460444  
H15      H      0.695760000000     0.850300000000     0.477680000000     0.0438349  
H16      H      0.741940000000     0.869660000000     0.476380000000     0.0626479  
H17      H      0.665500000000     0.819990000000     0.508800000000     0.0443656  
H18      H      0.742610000000     0.792270000000     0.415350000000     0.0860357  
H19      H      0.665760000000     0.715000000000     0.494120000000     0.0601449  
H20      H      0.664880000000     0.792660000000     0.555390000000     0.0587243  
H21      H      0.742090000000     0.764870000000     0.461600000000     0.0477026  
H22      H      0.634850000000     0.762010000000     0.586080000000     0.0361902  
H23      H      0.125030000000     0.263190000000     0.587310000000     0.03806    
H24      H      0.279570000000     0.320070000000     0.399460000000     0.0426346  
H25      H      0.158880000000     0.314070000000     0.508110000000     0.0458696  
H26      H      0.247070000000     0.268890000000     0.479180000000     0.0457425  
H27      H      0.249540000000     0.289180000000     0.429290000000     0.0638513  
H28      H      0.217360000000     0.237790000000     0.510230000000     0.0448723  
H29      H      0.232060000000     0.372790000000     0.479780000000     0.0864671  
H30      H      0.154890000000     0.294460000000     0.557010000000     0.0602189  
H31      H      0.175250000000     0.209180000000     0.509420000000     0.0590275  
H32      H      0.188710000000     0.345240000000     0.477240000000     0.046751   
H33      H      0.145710000000     0.178560000000     0.540570000000     0.0368652  
H34      H      0.528550000000     0.571180000000     0.589690000000     0.0427435  
H35      H      0.383720000000     0.505360000000     0.395660000000     0.0416317  
H36      H      0.496250000000     0.513090000000     0.513900000000     0.046884   
H37      H      0.414180000000     0.562500000000     0.472540000000     0.0458072  
H38      H      0.413600000000     0.536640000000     0.425210000000     0.0637548  
H39      H      0.443960000000     0.594540000000     0.502700000000     0.0452539  
H40      H      0.421490000000     0.457910000000     0.484210000000     0.0866296  
H41      H      0.498030000000     0.539160000000     0.560820000000     0.0619399  
H42      H      0.488560000000     0.618230000000     0.501890000000     0.0590935  
H43      H      0.466430000000     0.481040000000     0.483780000000     0.0470056  
H44      H      0.518760000000     0.649760000000     0.531570000000     0.0361794  
H45      H      0.632030000000     0.148840000000     0.205200000000     0.0360504  
H46      H      0.780440000000     0.942820000000     0.277520000000     0.0376803  
H47      H      0.710350000000     0.105540000000     0.239470000000     0.044664   
H48      H      0.704200000000     0.987340000000     0.241270000000     0.0441993  
H49      H      0.750920000000     0.972730000000     0.246420000000     0.0620206  
H50      H      0.673920000000     0.017680000000     0.210220000000     0.0457656  
H51      H      0.740540000000     0.042940000000     0.313300000000     0.0849316  
H52      H      0.662250000000     0.118620000000     0.235960000000     0.0592105  
H53      H      0.674750000000     0.051430000000     0.166570000000     0.0601019  
H54      H      0.740810000000     0.075250000000     0.270310000000     0.0456101  
H55      H      0.644170000000     0.082070000000     0.136460000000     0.0416111  
H56      H      0.516200000000     0.182280000000     0.193100000000     0.0364138  
H57      H      0.393210000000     0.399980000000     0.288950000000     0.0360263  
H58      H      0.485610000000     0.251040000000     0.262270000000     0.0451392  
H59      H      0.424990000000     0.332420000000     0.219580000000     0.0427203  
H60      H      0.424200000000     0.371990000000     0.257990000000     0.0614208  
H61      H      0.456160000000     0.303520000000     0.188410000000     0.0437327  
H62      H      0.406880000000     0.284510000000     0.302900000000     0.0852026  
H63      H      0.485040000000     0.211060000000     0.223870000000     0.0591857  
H64      H      0.504350000000     0.298160000000     0.178580000000     0.0582676  
H65      H      0.454550000000     0.279990000000     0.293460000000     0.046553   
H66      H      0.535090000000     0.268500000000     0.147880000000     0.0354308  
H67      H      0.255960000000     0.927840000000     0.802940000000     0.0353748  
H68      H      0.158050000000     0.147930000000     0.681480000000     0.0354116  
H69      H      0.190250000000     0.997100000000     0.775130000000     0.0447484  
H70      H      0.224740000000     0.078000000000     0.706170000000     0.0429506  
H71      H      0.189380000000     0.118600000000     0.711020000000     0.0610975  
H72      H      0.256390000000     0.048210000000     0.736050000000     0.0436928  
H73      H      0.145410000000     0.032150000000     0.694470000000     0.0854465  
H74      H      0.224810000000     0.956660000000     0.772170000000     0.0588269  
H75      H      0.270810000000     0.042760000000     0.785710000000     0.0577912  
H76      H      0.158660000000     0.026750000000     0.745110000000     0.0463919  
H77      H      0.301890000000     0.013020000000     0.815830000000     0.0356756  
H78      H      0.387550000000     0.823260000000     0.838470000000     0.0363221  
H79      H      0.527700000000     0.759960000000     0.639770000000     0.0356309  
H80      H      0.417400000000     0.766660000000     0.760750000000     0.0447949  
H81      H      0.496270000000     0.819200000000     0.715530000000     0.0429334  
H82      H      0.497510000000     0.791360000000     0.668980000000     0.0611219  
H83      H      0.466280000000     0.850420000000     0.746230000000     0.0437045  
H84      H      0.493120000000     0.714950000000     0.730820000000     0.0851289  
H85      H      0.417240000000     0.792670000000     0.807530000000     0.0590128  
H86      H      0.420890000000     0.872160000000     0.748320000000     0.0579082  
H87      H      0.447390000000     0.735480000000     0.730140000000     0.0459731  
H88      H      0.391500000000     0.902350000000     0.780130000000     0.0347089  
H89      H      0.411930000000     0.930270000000     0.932410000000     0.0352072  
H90      H      0.506210000000     0.153610000000     0.052260000000     0.0347996  
H91      H      0.443010000000     0.988250000000     0.009700000000     0.0445057  
H92      H      0.473440000000     0.095270000000     0.977460000000     0.0424926  
H93      H      0.475300000000     0.123580000000     0.022890000000     0.0605829  
H94      H      0.442640000000     0.064810000000     0.947160000000     0.0436228  
H95      H      0.519430000000     0.037680000000     0.041310000000     0.0845293  
H96      H      0.442370000000     0.960310000000     0.963110000000     0.0585851  
H97      H      0.396080000000     0.045520000000     0.946620000000     0.0577148  
H98      H      0.473660000000     0.018800000000     0.040150000000     0.045238   
H99      H      0.366230000000     0.014830000000     0.915780000000     0.035617   
H100     H      0.023500000000     0.683450000000     0.199980000000     0.0356655  
H101     H      0.893390000000     0.901160000000     0.284170000000     0.0358488  
H102     H      0.992920000000     0.757600000000     0.264520000000     0.0448176  
H103     H      0.924560000000     0.828000000000     0.219400000000     0.0434179  
H104     H      0.924300000000     0.872120000000     0.253920000000     0.0611994  
H105     H      0.955330000000     0.797950000000     0.188680000000     0.0439829  
H106     H      0.914650000000     0.789270000000     0.307770000000     0.0858219  
H107     H      0.992890000000     0.713280000000     0.230590000000     0.0590273  
H108     H      0.002570000000     0.795300000000     0.175110000000     0.0580015  
H109     H      0.962140000000     0.787630000000     0.295220000000     0.0459736  
H110     H      0.032740000000     0.764550000000     0.144670000000     0.0358495  
H111     H      0.284450000000     0.821860000000     0.896560000000     0.0362937  
H112     H      0.137140000000     0.761370000000     0.089850000000     0.0355436  
H113     H      0.253340000000     0.767180000000     0.975140000000     0.0445287  
H114     H      0.171050000000     0.818320000000     0.014220000000     0.0426605  
H115     H      0.168120000000     0.792550000000     0.061440000000     0.0608531  
H116     H      0.201580000000     0.849430000000     0.984070000000     0.0435625  
H117     H      0.177980000000     0.713560000000     0.003060000000     0.0847494  
H118     H      0.254610000000     0.791250000000     0.927330000000     0.0589802  
H119     H      0.246570000000     0.872800000000     0.983660000000     0.0576936  
H120     H      0.222850000000     0.736100000000     0.005280000000     0.0454349  
H121     H      0.276200000000     0.902950000000     0.952070000000     0.0344642  
H122     H      0.145760000000     0.652970000000     0.198470000000     0.0356913  
H123     H      0.268050000000     0.430880000000     0.287080000000     0.0359798  
H124     H      0.173730000000     0.578820000000     0.264040000000     0.0450619  
H125     H      0.239010000000     0.503440000000     0.220260000000     0.0430594  
H126     H      0.238010000000     0.460350000000     0.256060000000     0.0615607  
H127     H      0.209360000000     0.534400000000     0.188980000000     0.0444355  
H128     H      0.250760000000     0.544500000000     0.307460000000     0.0855142  
H129     H      0.175590000000     0.622270000000     0.229250000000     0.0590987  
H130     H      0.162210000000     0.539590000000     0.175490000000     0.0588582  
H131     H      0.203360000000     0.547910000000     0.295280000000     0.0467489  
H132     H      0.132860000000     0.571180000000     0.144860000000     0.0377894  
H133     H      0.858030000000     0.326220000000     0.810660000000     0.0363341  
H134     H      0.044670000000     0.206500000000     0.709920000000     0.0368146  
H135     H      0.906090000000     0.292610000000     0.731960000000     0.0453581  
H136     H      0.003960000000     0.292060000000     0.752750000000     0.0432744  
H137     H      0.014860000000     0.236460000000     0.740780000000     0.0621416  
H138     H      0.973810000000     0.322850000000     0.783620000000     0.0441662  
H139     H      0.971650000000     0.269580000000     0.666130000000     0.0856699  
H140     H      0.887800000000     0.293940000000     0.781040000000     0.0590224  
H141     H      0.945720000000     0.370660000000     0.781090000000     0.0594505  
H142     H      0.936120000000     0.261000000000     0.701660000000     0.0465918  
H143     H      0.915650000000     0.402070000000     0.811010000000     0.0374552  
H144     H      0.619870000000     0.209630000000     0.022580000000     0.0361378  
H145     H      0.805360000000     0.335080000000     0.928220000000     0.0354689  
H146     H      0.658550000000     0.295780000000     0.978010000000     0.0447312  
H147     H      0.754320000000     0.306310000000     0.006460000000     0.0427272  
H148     H      0.775660000000     0.304340000000     0.958570000000     0.0612126  
H149     H      0.723910000000     0.274820000000     0.036490000000     0.043692   
H150     H      0.714620000000     0.376240000000     0.949110000000     0.0852322  
H151     H      0.650120000000     0.240420000000     0.992300000000     0.0587792  
H152     H      0.685250000000     0.282110000000     0.068740000000     0.0585491  
H153     H      0.689120000000     0.326430000000     0.947540000000     0.045839   
H154     H      0.654920000000     0.250650000000     0.098400000000     0.0353419  
H155     H      0.779810000000     0.437740000000     0.775730000000     0.036782   
H156     H      0.643110000000     0.650400000000     0.692780000000     0.0384041  
H157     H      0.704350000000     0.486860000000     0.741560000000     0.0465824  
H158     H      0.720400000000     0.602030000000     0.723320000000     0.0439297  
H159     H      0.674320000000     0.621610000000     0.722870000000     0.063355   
H160     H      0.751210000000     0.572540000000     0.754460000000     0.0460561  
H161     H      0.671790000000     0.542460000000     0.663770000000     0.0856229  
H162     H      0.750500000000     0.467010000000     0.743190000000     0.0600562  
H163     H      0.751930000000     0.547070000000     0.801870000000     0.0619725  
H164     H      0.673520000000     0.516330000000     0.710500000000     0.0473695  
H165     H      0.781550000000     0.517330000000     0.833640000000     0.0441306  
H166     H      0.022700000000     0.656050000000     0.033750000000     0.0377823  
H167     H      0.888100000000     0.441870000000     0.949990000000     0.0351885  
H168     H      0.990730000000     0.582210000000     0.969740000000     0.0460788  
H169     H      0.919510000000     0.515600000000     0.014480000000     0.0431218  
H170     H      0.918420000000     0.470810000000     0.981030000000     0.061148   
H171     H      0.950560000000     0.545060000000     0.045370000000     0.044017   
H172     H      0.912840000000     0.552340000000     0.924900000000     0.0853872  
H173     H      0.991270000000     0.627310000000     0.003210000000     0.0599247  
H174     H      0.997950000000     0.545550000000     0.059510000000     0.0584704  
H175     H      0.959770000000     0.552710000000     0.938860000000     0.0461393  
H176     H      0.029010000000     0.575170000000     0.089800000000     0.0365415  
N1       N      0.029440000000     0.106760000000     0.566140000000    -0.190383   
N2       N      0.886670000000     0.969280000000     0.418210000000    -0.178611   
N3       N      0.775700000000     0.863110000000     0.413100000000    -0.190661   
N4       N      0.633370000000     0.721230000000     0.558060000000    -0.17906    
N5       N      0.273480000000     0.364470000000     0.421950000000    -0.190169   
N6       N      0.133220000000     0.218660000000     0.566140000000    -0.179141   
N7       N      0.385070000000     0.463290000000     0.422360000000    -0.190601   
N8       N      0.525890000000     0.612730000000     0.562690000000    -0.178289   
N9       N      0.778220000000     0.975380000000     0.313410000000    -0.191757   
N10      N      0.635940000000     0.117660000000     0.168630000000    -0.178405   
N11      N      0.382160000000     0.358980000000     0.314350000000    -0.191618   
N12      N      0.527910000000     0.223300000000     0.168310000000    -0.17963    
N13      N      0.133260000000     0.107500000000     0.670770000000    -0.191132   
N14      N      0.281130000000     0.968340000000     0.811630000000    -0.179351   
N15      N      0.527950000000     0.719000000000     0.667860000000    -0.192037   
N16      N      0.387360000000     0.864980000000     0.811530000000    -0.179714   
N17      N      0.530750000000     0.113440000000     0.064350000000    -0.192091   
N18      N      0.386930000000     0.970370000000     0.921840000000    -0.179499   
N19      N      0.886060000000     0.862550000000     0.313850000000    -0.191275   
N20      N      0.030310000000     0.721830000000     0.170130000000    -0.179548   
N21      N      0.139510000000     0.719180000000     0.063430000000    -0.192168   
N22      N      0.282470000000     0.864590000000     0.922080000000    -0.179747   
N23      N      0.276820000000     0.470140000000     0.315560000000    -0.191646   
N24      N      0.137130000000     0.614300000000     0.169500000000    -0.179173   
N25      N      0.025630000000     0.220150000000     0.670020000000    -0.19224    
N26      N      0.884680000000     0.366440000000     0.812960000000    -0.17926    
N27      N      0.777440000000     0.373420000000     0.920540000000    -0.192232   
N28      N      0.635230000000     0.227880000000     0.062650000000    -0.179937   
N29      N      0.638730000000     0.613300000000     0.660950000000    -0.191513   
N30      N      0.782720000000     0.475370000000     0.807040000000    -0.177638   
N31      N      0.883070000000     0.479720000000     0.919010000000    -0.192078   
N32      N      0.028130000000     0.617690000000     0.063940000000    -0.178926   
O1       O      0.807100000000     0.470210000000     0.849170000000    -0.230602   
O2       O      0.818350000000     0.378580000000     0.897160000000    -0.245719   
O3       O      0.857460000000     0.471340000000     0.877840000000    -0.220157   
O4       O      0.873930000000     0.412430000000     0.837810000000    -0.247764   
O5       O      0.845080000000     0.374290000000     0.838010000000    -0.244374   
O6       O      0.859540000000     0.433450000000     0.908680000000    -0.249477   
O7       O      0.806430000000     0.430230000000     0.820070000000    -0.246309   
O8       O      0.789610000000     0.415860000000     0.891130000000    -0.227242   
O9       O      0.108550000000     0.619830000000     0.130560000000    -0.241003   
O10      O      0.058210000000     0.716630000000     0.130560000000    -0.245055   
O11      O      0.056370000000     0.621730000000     0.103310000000    -0.243273   
O12      O      0.114680000000     0.674230000000     0.075550000000    -0.226271   
O13      O      0.110940000000     0.715250000000     0.102700000000    -0.24596    
O14      O      0.053030000000     0.662440000000     0.075310000000    -0.245361   
O15      O      0.114940000000     0.660840000000     0.157580000000    -0.248801   
O16      O      0.053600000000     0.676000000000     0.158440000000    -0.249793   
O17      O      0.295280000000     0.922530000000     0.834800000000    -0.250531   
O18      O      0.361220000000     0.870310000000     0.852380000000    -0.244266   
O19      O      0.305460000000     0.910460000000     0.909560000000    -0.251503   
O20      O      0.350220000000     0.966090000000     0.891600000000    -0.243595   
O21      O      0.373430000000     0.923760000000     0.899570000000    -0.250725   
O22      O      0.309480000000     0.869620000000     0.881840000000    -0.244141   
O23      O      0.318660000000     0.965130000000     0.840830000000    -0.24319    
O24      O      0.363290000000     0.910270000000     0.823410000000    -0.251379   
O25      O      0.566940000000     0.120680000000     0.095340000000    -0.22122    
O26      O      0.549330000000     0.177060000000     0.154080000000    -0.247094   
O27      O      0.601430000000     0.190790000000     0.068870000000    -0.248631   
O28      O      0.613840000000     0.127000000000     0.125590000000    -0.236401   
O29      O      0.607180000000     0.159900000000     0.160470000000    -0.24609    
O30      O      0.618640000000     0.211790000000     0.106860000000    -0.24972    
O31      O      0.544720000000     0.162060000000     0.082660000000    -0.249088   
O32      O      0.559100000000     0.220340000000     0.131450000000    -0.247944   
O33      O      0.357700000000     0.459480000000     0.382170000000    -0.236963   
O34      O      0.352420000000     0.364580000000     0.352640000000    -0.218426   
O35      O      0.305870000000     0.463060000000     0.354200000000    -0.218309   
O36      O      0.297330000000     0.409580000000     0.408200000000    -0.218765   
O37      O      0.302990000000     0.367070000000     0.383410000000    -0.234967   
O38      O      0.298200000000     0.422760000000     0.327150000000    -0.248882   
O39      O      0.359720000000     0.418830000000     0.409940000000    -0.22005    
O40      O      0.361150000000     0.406060000000     0.327470000000    -0.248756   
O41      O      0.608750000000     0.676160000000     0.568980000000    -0.244619   
O42      O      0.613400000000     0.658660000000     0.652470000000    -0.244679   
O43      O      0.549610000000     0.658870000000     0.572280000000    -0.246574   
O44      O      0.554080000000     0.714000000000     0.626760000000    -0.247028   
O45      O      0.553080000000     0.674310000000     0.655710000000    -0.224862   
O46      O      0.554670000000     0.619300000000     0.601310000000    -0.234774   
O47      O      0.608060000000     0.714830000000     0.599460000000    -0.245114   
O48      O      0.609200000000     0.620050000000     0.622650000000    -0.221062   
O49      O      0.862780000000     0.909090000000     0.323720000000    -0.246575   
O50      O      0.801290000000     0.908380000000     0.405290000000    -0.241674   
O51      O      0.804790000000     0.930890000000     0.321060000000    -0.244929   
O52      O      0.862030000000     0.963470000000     0.376270000000    -0.24249    
O53      O      0.858860000000     0.926600000000     0.408330000000    -0.242728   
O54      O      0.803210000000     0.965580000000     0.354830000000    -0.224134   
O55      O      0.857360000000     0.869990000000     0.352800000000    -0.217578   
O56      O      0.803540000000     0.871390000000     0.373560000000    -0.216303   
O57      O      0.096360000000     0.114020000000     0.640660000000    -0.215242   
O58      O      0.113450000000     0.171330000000     0.580250000000    -0.245161   
O59      O      0.061700000000     0.185720000000     0.664990000000    -0.247214   
O60      O      0.050320000000     0.118750000000     0.609660000000    -0.213676   
O61      O      0.057700000000     0.149740000000     0.573820000000    -0.241776   
O62      O      0.042280000000     0.201340000000     0.626420000000    -0.225779   
O63      O      0.119150000000     0.155590000000     0.651430000000    -0.248319   
O64      O      0.102490000000     0.213960000000     0.603270000000    -0.244432   


