data_structure

_audit_creation_method RASPA-1.0
_audit_creation_date 2023-6-5
_audit_author_name 'Poobodin Mano'

_cell_length_a    56.4973
_cell_length_b    56.5518
_cell_length_c    32.0249
_cell_angle_alpha 90.031
_cell_angle_beta  89.9138
_cell_angle_gamma 90
_cell_volume      102320

_symmetry_cell_setting          triclinic
_symmetry_space_group_name_Hall 'P 1'
_symmetry_space_group_name_H-M  'P 1'
_symmetry_Int_Tables_number     1

_symmetry_equiv_pos_as_xyz 'x,y,z'

loop_
_atom_site_label
_atom_site_type_symbol
_atom_site_fract_x
_atom_site_fract_y
_atom_site_fract_z
_atom_site_charge
C1       C      0.382310000000     0.330210000000     0.965870000000     0.347646   
C2       C      0.309950000000     0.313720000000     0.031720000000     0.347138   
C3       C      0.323020000000     0.385350000000     0.953530000000     0.349309   
C4       C      0.312550000000     0.311790000000     0.885870000000     0.347955   
C5       C      0.315930000000     0.705930000000     0.032580000000     0.347772   
C6       C      0.328720000000     0.634420000000     0.951670000000     0.356249   
C7       C      0.317020000000     0.707390000000     0.886550000000     0.349717   
C8       C      0.388030000000     0.689040000000     0.964630000000     0.348024   
C9       C      0.708360000000     0.311180000000     0.903930000000     0.354721   
C10      C      0.632440000000     0.325460000000     0.969080000000     0.356474   
C11      C      0.706180000000     0.311750000000     0.043320000000     0.348733   
C12      C      0.684330000000     0.384480000000     0.973610000000     0.355364   
C13      C      0.693670000000     0.634560000000     0.974870000000     0.350664   
C14      C      0.711660000000     0.711580000000     0.905760000000     0.355483   
C15      C      0.638400000000     0.688520000000     0.966690000000     0.355399   
C16      C      0.711930000000     0.705160000000     0.046840000000     0.354634   
C17      C      0.814270000000     0.209800000000     0.545020000000     0.346589   
C18      C      0.835430000000     0.137550000000     0.472530000000     0.357272   
C19      C      0.811240000000     0.209070000000     0.401070000000     0.358076   
C20      C      0.886180000000     0.197850000000     0.472030000000     0.359718   
C21      C      0.812670000000     0.815050000000     0.544540000000     0.348934   
C22      C      0.887180000000     0.832810000000     0.471200000000     0.355618   
C23      C      0.815370000000     0.813790000000     0.401100000000     0.346019   
C24      C      0.832230000000     0.887460000000     0.476420000000     0.346233   
C25      C      0.207920000000     0.812330000000     0.385030000000     0.355557   
C26      C      0.137560000000     0.829500000000     0.459060000000     0.350587   
C27      C      0.213040000000     0.810730000000     0.528520000000     0.356291   
C28      C      0.194510000000     0.884480000000     0.460120000000     0.354064   
C29      C      0.202650000000     0.206550000000     0.383290000000     0.356018   
C30      C      0.197510000000     0.133710000000     0.467820000000     0.34845    
C31      C      0.210860000000     0.203730000000     0.530190000000     0.354641   
C32      C      0.135960000000     0.189530000000     0.455880000000     0.348084   
C33      C      0.213810000000     0.945030000000     0.433400000000    -0.114558   
C34      C      0.190240000000     0.096760000000     0.500770000000     0.0754778  
C35      C      0.215170000000     0.098620000000     0.441240000000     0.0765632  
C36      C      0.192270000000     0.072160000000     0.501720000000    -0.087229   
C37      C      0.208040000000     0.020800000000     0.506570000000    -0.0333845  
C38      C      0.207300000000     0.996100000000     0.505070000000    -0.0295978  
C39      C      0.206400000000     0.034200000000     0.469720000000    -0.00162225 
C40      C      0.217550000000     0.074040000000     0.441210000000    -0.0863764  
C41      C      0.204880000000     0.984240000000     0.466700000000    -0.00726204 
C42      C      0.189030000000     0.945930000000     0.494350000000    -0.095377   
C43      C      0.203640000000     0.997650000000     0.429820000000    -0.0290364  
C44      C      0.186410000000     0.921470000000     0.491460000000     0.0796586  
C45      C      0.210610000000     0.920460000000     0.430640000000     0.170152   
C46      C      0.204410000000     0.022320000000     0.431310000000    -0.0324554  
C47      C      0.205710000000     0.060450000000     0.471270000000     0.0521127  
C48      C      0.202840000000     0.958040000000     0.465140000000     0.0666778  
C49      C      0.949420000000     0.823220000000     0.502080000000    -0.114781   
C50      C      0.100950000000     0.833530000000     0.423280000000     0.0775546  
C51      C      0.101320000000     0.821350000000     0.494110000000     0.0770068  
C52      C      0.076240000000     0.832810000000     0.422760000000    -0.08607    
C53      C      0.024670000000     0.844410000000     0.439190000000    -0.0329346  
C54      C      0.999960000000     0.844790000000     0.440470000000    -0.0292829  
C55      C      0.037400000000     0.826340000000     0.459280000000    -0.00127902 
C56      C      0.076610000000     0.820450000000     0.494690000000    -0.0864585  
C57      C      0.987350000000     0.827130000000     0.461920000000    -0.0071994  
C58      C      0.947550000000     0.834680000000     0.429980000000    -0.0954458  
C59      C      0.000050000000     0.808930000000     0.481700000000    -0.0290951  
C60      C      0.922990000000     0.836300000000     0.433400000000     0.079819   
C61      C      0.924720000000     0.825380000000     0.505050000000     0.170096   
C62      C      0.024790000000     0.808530000000     0.480380000000    -0.0322148  
C63      C      0.063730000000     0.826370000000     0.458820000000     0.0526675  
C64      C      0.961090000000     0.828060000000     0.464510000000     0.0668508  
C65      C      0.851200000000     0.075330000000     0.451820000000    -0.114805   
C66      C      0.818650000000     0.923720000000     0.447370000000     0.0745711  
C67      C      0.842900000000     0.924030000000     0.507750000000     0.0746718  
C68      C      0.818060000000     0.948420000000     0.447050000000    -0.0873377  
C69      C      0.810230000000     0.000520000000     0.469320000000    -0.0328925  
C70      C      0.810870000000     0.025250000000     0.468490000000    -0.0293531  
C71      C      0.830990000000     0.987450000000     0.476550000000    -0.00206411 
C72      C      0.842840000000     0.948710000000     0.508170000000    -0.0874174  
C73      C      0.832320000000     0.037370000000     0.474420000000    -0.00719592 
C74      C      0.816430000000     0.077060000000     0.494960000000    -0.0948515  
C75      C      0.853060000000     0.024280000000     0.481550000000    -0.0294056  
C76      C      0.817970000000     0.101690000000     0.494760000000     0.0817899  
C77      C      0.852550000000     0.100100000000     0.452320000000     0.171795   
C78      C      0.852390000000     0.999610000000     0.482730000000    -0.0326487  
C79      C      0.830470000000     0.961210000000     0.477420000000     0.0517866  
C80      C      0.833150000000     0.063600000000     0.473350000000     0.0676471  
C81      C      0.946760000000     0.212230000000     0.437290000000    -0.11389    
C82      C      0.097970000000     0.173970000000     0.440050000000     0.0760757  
C83      C      0.101330000000     0.211910000000     0.471040000000     0.0753148  
C84      C      0.073330000000     0.175570000000     0.440890000000    -0.0871546  
C85      C      0.022850000000     0.177390000000     0.472490000000    -0.0324544  
C86      C      0.998220000000     0.178650000000     0.475130000000    -0.0289886  
C87      C      0.036160000000     0.197200000000     0.460170000000    -0.00176248 
C88      C      0.076690000000     0.214120000000     0.472290000000    -0.0872435  
C89      C      0.986280000000     0.199750000000     0.465490000000    -0.00661634 
C90      C      0.948090000000     0.190460000000     0.501620000000    -0.0947992  
C91      C      0.999560000000     0.219590000000     0.453170000000    -0.029133   
C92      C      0.923440000000     0.190690000000     0.502900000000     0.0839732  
C93      C      0.921920000000     0.212560000000     0.439520000000     0.17307    
C94      C      0.024250000000     0.218340000000     0.450640000000    -0.0321487  
C95      C      0.062380000000     0.195710000000     0.457510000000     0.0524249  
C96      C      0.960050000000     0.200870000000     0.468170000000     0.0683367  
C97      C      0.723670000000     0.755790000000     0.823630000000    -0.11383    
C98      C      0.808540000000     0.782920000000     0.591850000000     0.0762602  
C99      C      0.784990000000     0.817290000000     0.600440000000     0.0755138  
C100     C      0.798280000000     0.772700000000     0.627200000000    -0.0864176  
C101     C      0.764430000000     0.750490000000     0.689550000000    -0.0325463  
C102     C      0.754770000000     0.740580000000     0.725730000000    -0.0291018  
C103     C      0.770280000000     0.774640000000     0.688070000000    -0.00141622 
C104     C      0.774370000000     0.807600000000     0.635960000000    -0.0869225  
C105     C      0.750700000000     0.754590000000     0.761310000000    -0.00652186 
C106     C      0.748710000000     0.721910000000     0.813970000000    -0.0943354  
C107     C      0.756380000000     0.778780000000     0.759760000000    -0.0289317  
C108     C      0.739180000000     0.712000000000     0.850120000000     0.0817655  
C109     C      0.714560000000     0.745640000000     0.860320000000     0.171362   
C110     C      0.766060000000     0.788690000000     0.723570000000    -0.032039   
C111     C      0.781030000000     0.785080000000     0.649880000000     0.0523549  
C112     C      0.740800000000     0.743920000000     0.800000000000     0.0674575  
C113     C      0.753860000000     0.716410000000     0.132990000000    -0.114077   
C114     C      0.784910000000     0.811550000000     0.350070000000     0.0739874  
C115     C      0.816630000000     0.784090000000     0.348520000000     0.0742848  
C116     C      0.774840000000     0.801020000000     0.314860000000    -0.0872459  
C117     C      0.765610000000     0.783730000000     0.226380000000    -0.0329647  
C118     C      0.755540000000     0.772920000000     0.191400000000    -0.0295085  
C119     C      0.775330000000     0.770030000000     0.258700000000    -0.00186064 
C120     C      0.806990000000     0.773080000000     0.313380000000    -0.0871253  
C121     C      0.754910000000     0.748130000000     0.187940000000    -0.00682016 
C122     C      0.722810000000     0.745390000000     0.134140000000    -0.0945183  
C123     C      0.764690000000     0.734440000000     0.220250000000    -0.0292295  
C124     C      0.712460000000     0.734240000000     0.099890000000     0.0810166  
C125     C      0.742900000000     0.705200000000     0.098990000000     0.170491   
C126     C      0.774810000000     0.745260000000     0.255180000000    -0.0326489  
C127     C      0.785860000000     0.781530000000     0.296070000000     0.0515159  
C128     C      0.743830000000     0.736610000000     0.151030000000     0.0668819  
C129     C      0.753370000000     0.297250000000     0.823940000000    -0.113978   
C130     C      0.781470000000     0.213850000000     0.591090000000     0.0750696  
C131     C      0.816610000000     0.235680000000     0.603400000000     0.0752237  
C132     C      0.770910000000     0.223780000000     0.626460000000    -0.0867703  
C133     C      0.748810000000     0.257910000000     0.688650000000    -0.0325522  
C134     C      0.738570000000     0.267850000000     0.724320000000    -0.0292798  
C135     C      0.772610000000     0.250660000000     0.688830000000    -0.00164569 
C136     C      0.806610000000     0.245920000000     0.638970000000    -0.0869274  
C137     C      0.751890000000     0.270780000000     0.761010000000    -0.00661559 
C138     C      0.718050000000     0.274770000000     0.811180000000    -0.0940655  
C139     C      0.775700000000     0.263560000000     0.761170000000    -0.0292396  
C140     C      0.707980000000     0.284630000000     0.846920000000     0.0814849  
C141     C      0.743020000000     0.306680000000     0.860200000000     0.170579   
C142     C      0.785940000000     0.253620000000     0.725500000000    -0.0323888  
C143     C      0.783500000000     0.240010000000     0.650950000000     0.0520071  
C144     C      0.740920000000     0.281180000000     0.799040000000     0.0670682  
C145     C      0.774240000000     0.216200000000     0.307030000000    -0.114063   
C146     C      0.733470000000     0.314050000000     0.099630000000     0.0776782  
C147     C      0.711080000000     0.279080000000     0.089190000000     0.0766148  
C148     C      0.744290000000     0.304150000000     0.134690000000    -0.0860962  
C149     C      0.752590000000     0.283970000000     0.221410000000    -0.0323955  
C150     C      0.762650000000     0.273850000000     0.257000000000    -0.0287603  
C151     C      0.749410000000     0.270500000000     0.184940000000    -0.00118059 
C152     C      0.721620000000     0.268610000000     0.124000000000    -0.0867094  
C153     C      0.769830000000     0.250040000000     0.256950000000    -0.00633623 
C154     C      0.795990000000     0.251920000000     0.320090000000    -0.0937822  
C155     C      0.766750000000     0.236610000000     0.220390000000    -0.0286838  
C156     C      0.805500000000     0.241560000000     0.355810000000     0.0825489  
C157     C      0.783750000000     0.206230000000     0.343470000000     0.171925   
C158     C      0.756630000000     0.246720000000     0.184820000000    -0.0318456  
C159     C      0.738370000000     0.281190000000     0.147340000000     0.0530122  
C160     C      0.780290000000     0.239200000000     0.295000000000     0.067863   
C161     C      0.680990000000     0.446540000000     0.008960000000    -0.11402    
C162     C      0.702060000000     0.598300000000     0.940230000000     0.0783986  
C163     C      0.688360000000     0.597990000000     0.010230000000     0.0783476  
C164     C      0.702470000000     0.573610000000     0.939500000000    -0.0860183  
C165     C      0.686730000000     0.522300000000     0.938640000000    -0.0323418  
C166     C      0.685420000000     0.497630000000     0.938410000000    -0.028801   
C167     C      0.694860000000     0.534460000000     0.974150000000    -0.0011612  
C168     C      0.688530000000     0.573290000000     0.010580000000    -0.0858807  
C169     C      0.692160000000     0.484510000000     0.973710000000    -0.00674644 
C170     C      0.696130000000     0.444950000000     0.938920000000    -0.094046   
C171     C      0.700530000000     0.496630000000     0.009070000000    -0.0287222  
C172     C      0.693580000000     0.420410000000     0.939540000000     0.0819705  
C173     C      0.678120000000     0.421880000000     0.008630000000     0.17107    
C174     C      0.701890000000     0.521310000000     0.009270000000    -0.0318854  
C175     C      0.695470000000     0.560760000000     0.974830000000     0.053102   
C176     C      0.689970000000     0.458310000000     0.973980000000     0.0674071  
C177     C      0.235270000000     0.765630000000     0.601890000000    -0.114682   
C178     C      0.284560000000     0.726180000000     0.853000000000     0.0760063  
C179     C      0.320360000000     0.719850000000     0.815890000000     0.0768894  
C180     C      0.274330000000     0.736580000000     0.817850000000    -0.0870896  
C181     C      0.262330000000     0.769560000000     0.745980000000    -0.0331149  
C182     C      0.252160000000     0.779530000000     0.710340000000    -0.0294042  
C183     C      0.276650000000     0.749290000000     0.742870000000    -0.00158655 
C184     C      0.310660000000     0.730120000000     0.780140000000    -0.0866896  
C185     C      0.256010000000     0.769420000000     0.670790000000    -0.00717226 
C186     C      0.244860000000     0.804450000000     0.627160000000    -0.0953896  
C187     C      0.270340000000     0.749170000000     0.667680000000    -0.0289063  
C188     C      0.234600000000     0.814090000000     0.591450000000     0.0802489  
C189     C      0.225340000000     0.775680000000     0.565880000000     0.170603   
C190     C      0.280560000000     0.739240000000     0.703300000000    -0.0322331  
C191     C      0.287360000000     0.738590000000     0.780770000000     0.0525369  
C192     C      0.245130000000     0.779970000000     0.632910000000     0.0670441  
C193     C      0.216650000000     0.773710000000     0.293290000000    -0.114053   
C194     C      0.316950000000     0.733890000000     0.088080000000     0.074222   
C195     C      0.283970000000     0.708290000000     0.080730000000     0.0747643  
C196     C      0.306600000000     0.744460000000     0.123080000000    -0.0875921  
C197     C      0.286100000000     0.753650000000     0.209670000000    -0.032736   
C198     C      0.275220000000     0.764140000000     0.244270000000    -0.0290884  
C199     C      0.272880000000     0.748100000000     0.173840000000    -0.00190486 
C200     C      0.273080000000     0.718520000000     0.115480000000    -0.0876143  
C201     C      0.250890000000     0.769370000000     0.243790000000    -0.00642225 
C202     C      0.250590000000     0.798720000000     0.302510000000    -0.0937641  
C203     C      0.237700000000     0.763880000000     0.207850000000    -0.0289856  
C204     C      0.239420000000     0.809230000000     0.336650000000     0.0832553  
C205     C      0.205550000000     0.784830000000     0.327270000000     0.17333    
C206     C      0.248560000000     0.753340000000     0.173330000000    -0.0323056  
C207     C      0.284360000000     0.736860000000     0.137080000000     0.0519027  
C208     C      0.239300000000     0.780630000000     0.280500000000     0.0681113  
C209     C      0.577070000000     0.682520000000     0.928390000000    -0.11459    
C210     C      0.423660000000     0.710590000000     0.953100000000     0.0750647  
C211     C      0.425240000000     0.671360000000     0.979060000000     0.0753573  
C212     C      0.448380000000     0.711810000000     0.952580000000    -0.0871604  
C213     C      0.500810000000     0.712740000000     0.976500000000    -0.0330179  
C214     C      0.525580000000     0.712800000000     0.975660000000    -0.0295397  
C215     C      0.488100000000     0.692710000000     0.963320000000    -0.00196874 
C216     C      0.449920000000     0.671950000000     0.978840000000    -0.0876083  
C217     C      0.538130000000     0.692900000000     0.961340000000    -0.00706561 
C218     C      0.577060000000     0.701120000000     0.995810000000    -0.0950682  
C219     C      0.525380000000     0.673010000000     0.947710000000    -0.0293086  
C220     C      0.601680000000     0.699360000000     0.996610000000     0.0810591  
C221     C      0.601810000000     0.680630000000     0.930080000000     0.171225   
C222     C      0.500680000000     0.672920000000     0.948700000000    -0.0324503  
C223     C      0.461820000000     0.692240000000     0.965110000000     0.05198    
C224     C      0.564430000000     0.692530000000     0.961560000000     0.067346   
C225     C      0.257040000000     0.227940000000     0.599620000000    -0.114784   
C226     C      0.280110000000     0.294030000000     0.850620000000     0.0740313  
C227     C      0.317680000000     0.295890000000     0.817680000000     0.0742957  
C228     C      0.270530000000     0.282620000000     0.815860000000    -0.0876973  
C229     C      0.258450000000     0.247220000000     0.748100000000    -0.033309   
C230     C      0.248540000000     0.236460000000     0.712940000000    -0.029971   
C231     C      0.274830000000     0.265780000000     0.743740000000    -0.00221593 
C232     C      0.308680000000     0.284480000000     0.782390000000    -0.0875311  
C233     C      0.254810000000     0.243980000000     0.672600000000    -0.00746395 
C234     C      0.219370000000     0.228580000000     0.634460000000    -0.0957514  
C235     C      0.271400000000     0.262340000000     0.668200000000    -0.0295399  
C236     C      0.208980000000     0.219090000000     0.598740000000     0.0798787  
C237     C      0.246160000000     0.218680000000     0.563770000000     0.169512   
C238     C      0.281280000000     0.273130000000     0.703350000000    -0.0327702  
C239     C      0.284830000000     0.277700000000     0.781150000000     0.0514549  
C240     C      0.243660000000     0.233110000000     0.635240000000     0.066528   
C241     C      0.219080000000     0.217940000000     0.273620000000    -0.114401   
C242     C      0.311970000000     0.287960000000     0.090290000000     0.0741202  
C243     C      0.276410000000     0.308640000000     0.075690000000     0.0743384  
C244     C      0.301490000000     0.277260000000     0.125010000000    -0.0877523  
C245     C      0.278480000000     0.268670000000     0.209770000000    -0.0328265  
C246     C      0.267520000000     0.258170000000     0.244250000000    -0.0296601  
C247     C      0.266340000000     0.270920000000     0.171710000000    -0.00233043 
C248     C      0.265360000000     0.298180000000     0.110040000000    -0.0879615  
C249     C      0.244230000000     0.249590000000     0.241340000000    -0.00697936 
C250     C      0.234580000000     0.248640000000     0.317630000000    -0.0945039  
C251     C      0.232130000000     0.251760000000     0.203230000000    -0.0296119  
C252     C      0.223670000000     0.237970000000     0.351840000000     0.0816303  
C253     C      0.207990000000     0.207650000000     0.308410000000     0.170628   
C254     C      0.243040000000     0.262350000000     0.168820000000    -0.0325994  
C255     C      0.277880000000     0.282260000000     0.135160000000     0.0517229  
C256     C      0.232580000000     0.238510000000     0.278030000000     0.0671553  
C257     C      0.570740000000     0.322960000000     0.931880000000    -0.114358   
C258     C      0.419940000000     0.347640000000     0.978030000000     0.074299   
C259     C      0.417310000000     0.306990000000     0.960450000000     0.0744808  
C260     C      0.444580000000     0.346170000000     0.979620000000    -0.0876455  
C261     C      0.495400000000     0.334990000000     0.002340000000    -0.0327029  
C262     C      0.520120000000     0.334170000000     0.001930000000    -0.0294096  
C263     C      0.482180000000     0.323000000000     0.971780000000    -0.0023128  
C264     C      0.441940000000     0.304890000000     0.961780000000    -0.0875743  
C265     C      0.532220000000     0.321330000000     0.970950000000    -0.0069954  
C266     C      0.571660000000     0.319160000000     0.006550000000    -0.0943744  
C267     C      0.519000000000     0.309050000000     0.940730000000    -0.0295093  
C268     C      0.596320000000     0.319790000000     0.005070000000     0.0817585  
C269     C      0.595580000000     0.323130000000     0.931040000000     0.170833   
C270     C      0.494280000000     0.309880000000     0.941140000000    -0.0324363  
C271     C      0.455920000000     0.324650000000     0.971270000000     0.0516657  
C272     C      0.558530000000     0.321130000000     0.969790000000     0.0669295  
C273     C      0.320620000000     0.574360000000     0.908450000000    -0.114718   
C274     C      0.318180000000     0.422550000000     0.987030000000     0.0744602  
C275     C      0.319030000000     0.420390000000     0.913100000000     0.0743676  
C276     C      0.316210000000     0.447130000000     0.985350000000    -0.0879934  
C277     C      0.301190000000     0.498110000000     0.972080000000    -0.0333294  
C278     C      0.301870000000     0.522820000000     0.971710000000    -0.0299599  
C279     C      0.315390000000     0.484930000000     0.944480000000    -0.00227701 
C280     C      0.317100000000     0.444970000000     0.910270000000    -0.0877292  
C281     C      0.316750000000     0.534910000000     0.943720000000    -0.00735127 
C282     C      0.320030000000     0.572930000000     0.983370000000    -0.0957884  
C283     C      0.330540000000     0.521730000000     0.915500000000    -0.0295177  
C284     C      0.323390000000     0.597340000000     0.984360000000     0.0798877  
C285     C      0.324350000000     0.598890000000     0.910150000000     0.169658   
C286     C      0.329860000000     0.497040000000     0.915870000000    -0.0326787  
C287     C      0.315930000000     0.458680000000     0.946670000000     0.051643   
C288     C      0.318750000000     0.561110000000     0.945150000000     0.0667074  
Cd1      Cd     0.331570000000     0.335070000000     0.959010000000     0.510007   
Cd2      Cd     0.337130000000     0.684740000000     0.959280000000     0.512614   
Cd3      Cd     0.683070000000     0.333270000000     0.972370000000     0.517879   
Cd4      Cd     0.689430000000     0.685530000000     0.973240000000     0.517894   
Cd5      Cd     0.835870000000     0.188770000000     0.471910000000     0.517912   
Cd6      Cd     0.836090000000     0.836520000000     0.473410000000     0.512681   
Cd7      Cd     0.188550000000     0.833640000000     0.459870000000     0.51703    
Cd8      Cd     0.186800000000     0.183410000000     0.459110000000     0.515487   
H1       H      0.224310000000     0.108460000000     0.417040000000     0.0406607  
H2       H      0.175600000000     0.912970000000     0.515100000000     0.0352616  
H3       H      0.202710000000     0.032110000000     0.402410000000     0.0463773  
H4       H      0.208650000000     0.986270000000     0.534000000000     0.0430605  
H5       H      0.179870000000     0.955320000000     0.519040000000     0.06039    
H6       H      0.209900000000     0.029410000000     0.536600000000     0.0439051  
H7       H      0.224490000000     0.953950000000     0.410090000000     0.0821513  
H8       H      0.228450000000     0.065730000000     0.417530000000     0.060991   
H9       H      0.182680000000     0.062350000000     0.525350000000     0.0582632  
H10      H      0.201360000000     0.989130000000     0.399810000000     0.0467782  
H11      H      0.179230000000     0.105090000000     0.524320000000     0.0354446  
H12      H      0.110610000000     0.816880000000     0.522640000000     0.0382221  
H13      H      0.913330000000     0.841210000000     0.405480000000     0.0353839  
H14      H      0.034030000000     0.794160000000     0.495640000000     0.0464355  
H15      H      0.990750000000     0.859280000000     0.425500000000     0.04352    
H16      H      0.955840000000     0.838380000000     0.400170000000     0.0611609  
H17      H      0.033820000000     0.858620000000     0.423250000000     0.0444872  
H18      H      0.959520000000     0.818870000000     0.529760000000     0.0822357  
H19      H      0.067690000000     0.815640000000     0.523400000000     0.0602109  
H20      H      0.067030000000     0.837170000000     0.394140000000     0.060637   
H21      H      0.990860000000     0.794890000000     0.498010000000     0.0471454  
H22      H      0.109940000000     0.838700000000     0.394770000000     0.0412006  
H23      H      0.852800000000     0.915030000000     0.531980000000     0.0383338  
H24      H      0.804450000000     0.111350000000     0.511730000000     0.0376711  
H25      H      0.868710000000     0.990020000000     0.487990000000     0.0451312  
H26      H      0.794630000000     0.034880000000     0.462720000000     0.0452167  
H27      H      0.802350000000     0.068620000000     0.512480000000     0.0621175  
H28      H      0.793450000000     0.991630000000     0.464730000000     0.0446824  
H29      H      0.864590000000     0.065270000000     0.435300000000     0.0828938  
H30      H      0.852390000000     0.957940000000     0.532530000000     0.059628   
H31      H      0.808400000000     0.957430000000     0.422570000000     0.0594861  
H32      H      0.869810000000     0.033130000000     0.486660000000     0.0460828  
H33      H      0.809110000000     0.914440000000     0.422990000000     0.03625    
H34      H      0.111800000000     0.226400000000     0.483310000000     0.0366339  
H35      H      0.915060000000     0.181780000000     0.529000000000     0.0379274  
H36      H      0.033990000000     0.233860000000     0.440760000000     0.0454871  
H37      H      0.988490000000     0.162980000000     0.484310000000     0.0458102  
H38      H      0.957710000000     0.181970000000     0.526720000000     0.0622063  
H39      H      0.031490000000     0.160910000000     0.480540000000     0.044613   
H40      H      0.955610000000     0.220940000000     0.411510000000     0.0835905  
H41      H      0.068950000000     0.229920000000     0.485680000000     0.0591668  
H42      H      0.062950000000     0.161090000000     0.428470000000     0.0605239  
H43      H      0.990900000000     0.236160000000     0.445900000000     0.0463869  
H44      H      0.105730000000     0.158010000000     0.427180000000     0.0382533  
H45      H      0.779370000000     0.834780000000     0.590760000000     0.0361667  
H46      H      0.745660000000     0.694680000000     0.859080000000     0.0388769  
H47      H      0.770700000000     0.807270000000     0.723730000000     0.0457408  
H48      H      0.750240000000     0.721970000000     0.725680000000     0.0449158  
H49      H      0.762320000000     0.712330000000     0.797130000000     0.0624753  
H50      H      0.767090000000     0.739250000000     0.662550000000     0.0447086  
H51      H      0.717510000000     0.773090000000     0.813980000000     0.0826449  
H52      H      0.760880000000     0.817660000000     0.652170000000     0.0595164  
H53      H      0.804180000000     0.755370000000     0.637100000000     0.060272   
H54      H      0.753810000000     0.789990000000     0.786820000000     0.0466866  
H55      H      0.821960000000     0.772830000000     0.575420000000     0.0392576  
H56      H      0.833050000000     0.777080000000     0.360850000000     0.0365515  
H57      H      0.696300000000     0.741980000000     0.087780000000     0.0387054  
H58      H      0.781840000000     0.734200000000     0.279810000000     0.0450987  
H59      H      0.748490000000     0.784000000000     0.166810000000     0.0443889  
H60      H      0.714180000000     0.760720000000     0.147550000000     0.0617272  
H61      H      0.766040000000     0.802860000000     0.227870000000     0.0445146  
H62      H      0.770030000000     0.709030000000     0.145640000000     0.0822451  
H63      H      0.816230000000     0.758220000000     0.299570000000     0.0595684  
H64      H      0.758330000000     0.807940000000     0.302800000000     0.058532   
H65      H      0.764140000000     0.715310000000     0.218980000000     0.0463336  
H66      H      0.775790000000     0.826540000000     0.363750000000     0.0361501  
H67      H      0.834520000000     0.240770000000     0.595160000000     0.0376276  
H68      H      0.690040000000     0.279300000000     0.854510000000     0.04131    
H69      H      0.804210000000     0.247890000000     0.726890000000     0.0451775  
H70      H      0.720280000000     0.273540000000     0.722970000000     0.0453881  
H71      H      0.707950000000     0.262030000000     0.793290000000     0.0628202  
H72      H      0.738150000000     0.256200000000     0.660720000000     0.0452132  
H73      H      0.771280000000     0.302280000000     0.815650000000     0.0824494  
H74      H      0.816870000000     0.258610000000     0.656670000000     0.0599521  
H75      H      0.753100000000     0.218490000000     0.634850000000     0.0594519  
H76      H      0.786340000000     0.265200000000     0.789120000000     0.0464177  
H77      H      0.771170000000     0.201290000000     0.573090000000     0.0382212  
H78      H      0.698070000000     0.268820000000     0.072140000000     0.0376385  
H79      H      0.817980000000     0.252060000000     0.373660000000     0.0412766  
H80      H      0.754730000000     0.235960000000     0.157020000000     0.0461847  
H81      H      0.764390000000     0.284600000000     0.284830000000     0.0445849  
H82      H      0.801310000000     0.269720000000     0.311840000000     0.0636119  
H83      H      0.746880000000     0.302240000000     0.222730000000     0.0459773  
H84      H      0.761340000000     0.206280000000     0.289160000000     0.0827544  
H85      H      0.716340000000     0.250910000000     0.132950000000     0.0602228  
H86      H      0.757370000000     0.314390000000     0.151540000000     0.0613188  
H87      H      0.772410000000     0.218330000000     0.219070000000     0.0481495  
H88      H      0.738540000000     0.331870000000     0.090870000000     0.0409319  
H89      H      0.682600000000     0.607000000000     0.038370000000     0.0392822  
H90      H      0.699060000000     0.410860000000     0.911790000000     0.0404811  
H91      H      0.708590000000     0.530090000000     0.036900000000     0.0463808  
H92      H      0.678560000000     0.488850000000     0.910890000000     0.0450938  
H93      H      0.703260000000     0.453330000000     0.911230000000     0.0632861  
H94      H      0.680820000000     0.531870000000     0.911290000000     0.0460668  
H95      H      0.675160000000     0.456550000000     0.035960000000     0.0824863  
H96      H      0.682720000000     0.564120000000     0.038450000000     0.0606927  
H97      H      0.708310000000     0.564660000000     0.911400000000     0.0605964  
H98      H      0.706180000000     0.487020000000     0.036550000000     0.0475862  
H99      H      0.707460000000     0.607570000000     0.912150000000     0.0395573  
H100     H      0.338450000000     0.713520000000     0.814120000000     0.0388608  
H101     H      0.234540000000     0.833210000000     0.588850000000     0.0357725  
H102     H      0.291300000000     0.723490000000     0.699870000000     0.0466833  
H103     H      0.241060000000     0.795020000000     0.713820000000     0.0434997  
H104     H      0.252690000000     0.816190000000     0.650040000000     0.0610565  
H105     H      0.259160000000     0.777870000000     0.775940000000     0.0439295  
H106     H      0.235550000000     0.746560000000     0.605230000000     0.0830639  
H107     H      0.321480000000     0.731600000000     0.752310000000     0.0601193  
H108     H      0.256170000000     0.742640000000     0.819580000000     0.0595138  
H109     H      0.273880000000     0.741110000000     0.637630000000     0.0468993  
H110     H      0.273820000000     0.724820000000     0.881000000000     0.0361684  
H111     H      0.274650000000     0.694120000000     0.064920000000     0.0365598  
H112     H      0.249120000000     0.822980000000     0.352920000000     0.0419402  
H113     H      0.237960000000     0.749630000000     0.145940000000     0.0451821  
H114     H      0.285830000000     0.767840000000     0.271650000000     0.044712   
H115     H      0.267950000000     0.804950000000     0.293250000000     0.0631784  
H116     H      0.304800000000     0.749550000000     0.211240000000     0.0445091  
H117     H      0.207330000000     0.759900000000     0.276580000000     0.0830165  
H118     H      0.256020000000     0.711900000000     0.125580000000     0.0596607  
H119     H      0.315820000000     0.758750000000     0.138630000000     0.0586925  
H120     H      0.219030000000     0.768070000000     0.206100000000     0.0468388  
H121     H      0.334100000000     0.740370000000     0.078050000000     0.0351907  
H122     H      0.416760000000     0.655240000000     0.989660000000     0.0365838  
H123     H      0.610610000000     0.706340000000     0.023920000000     0.0377285  
H124     H      0.491410000000     0.657320000000     0.937840000000     0.045564   
H125     H      0.534900000000     0.728450000000     0.986090000000     0.044282   
H126     H      0.567960000000     0.708730000000     0.022400000000     0.0617447  
H127     H      0.491640000000     0.728210000000     0.988180000000     0.0440638  
H128     H      0.567730000000     0.675570000000     0.901520000000     0.0826859  
H129     H      0.459610000000     0.656580000000     0.989500000000     0.0591371  
H130     H      0.456880000000     0.727800000000     0.941510000000     0.0592609  
H131     H      0.534490000000     0.657290000000     0.936980000000     0.0464455  
H132     H      0.413860000000     0.725960000000     0.942610000000     0.0361055  
H133     H      0.336230000000     0.300790000000     0.817460000000     0.0356026  
H134     H      0.190080000000     0.215760000000     0.599940000000     0.0354966  
H135     H      0.293570000000     0.287610000000     0.698860000000     0.0444505  
H136     H      0.236050000000     0.222140000000     0.717350000000     0.0430328  
H137     H      0.208290000000     0.232660000000     0.661130000000     0.0606373  
H138     H      0.253390000000     0.240850000000     0.778740000000     0.0435215  
H139     H      0.275880000000     0.231540000000     0.599200000000     0.0817299  
H140     H      0.320450000000     0.280780000000     0.756480000000     0.0587779  
H141     H      0.251920000000     0.278030000000     0.816030000000     0.0579944  
H142     H      0.276330000000     0.268790000000     0.637550000000     0.0459914  
H143     H      0.268410000000     0.297580000000     0.876760000000     0.0352266  
H144     H      0.266110000000     0.320890000000     0.057080000000     0.0358783  
H145     H      0.226160000000     0.246330000000     0.382010000000     0.0406508  
H146     H      0.233300000000     0.263630000000     0.139800000000     0.0446243  
H147     H      0.277370000000     0.256590000000     0.273100000000     0.0451719  
H148     H      0.244480000000     0.264830000000     0.322250000000     0.0627026  
H149     H      0.296370000000     0.275290000000     0.213090000000     0.0443216  
H150     H      0.216860000000     0.209970000000     0.243090000000     0.0824395  
H151     H      0.247180000000     0.302780000000     0.117100000000     0.0587461  
H152     H      0.311720000000     0.264870000000     0.143380000000     0.059039   
H153     H      0.214090000000     0.245530000000     0.200120000000     0.0460655  
H154     H      0.330220000000     0.283520000000     0.083300000000     0.035245   
H155     H      0.407120000000     0.291320000000     0.952880000000     0.0357794  
H156     H      0.605620000000     0.318750000000     0.034610000000     0.0385371  
H157     H      0.484650000000     0.300610000000     0.916920000000     0.0446078  
H158     H      0.529760000000     0.343980000000     0.025460000000     0.0447566  
H159     H      0.562950000000     0.317200000000     0.036510000000     0.0620732  
H160     H      0.486650000000     0.345030000000     0.026680000000     0.0441016  
H161     H      0.561040000000     0.324070000000     0.902790000000     0.0823751  
H162     H      0.449950000000     0.287830000000     0.955650000000     0.0585664  
H163     H      0.454670000000     0.361980000000     0.986540000000     0.0587318  
H164     H      0.527760000000     0.298750000000     0.916740000000     0.0459071  
H165     H      0.411900000000     0.364690000000     0.984340000000     0.0351607  
H166     H      0.320130000000     0.410430000000     0.884220000000     0.0351856  
H167     H      0.324260000000     0.605600000000     0.014900000000     0.0358342  
H168     H      0.341290000000     0.487440000000     0.894620000000     0.0446321  
H169     H      0.290770000000     0.532460000000     0.993430000000     0.0432497  
H170     H      0.319000000000     0.563340000000     0.012580000000     0.0607767  
H171     H      0.289570000000     0.489320000000     0.994080000000     0.0436726  
H172     H      0.319800000000     0.565660000000     0.878330000000     0.0818305  
H173     H      0.316600000000     0.453150000000     0.879710000000     0.0589174  
H174     H      0.315610000000     0.457040000000     0.014290000000     0.0582648  
H175     H      0.342490000000     0.530470000000     0.894000000000     0.0461544  
H176     H      0.318730000000     0.414340000000     0.017610000000     0.0356034  
N1       N      0.197170000000     0.908670000000     0.460220000000    -0.188379   
N2       N      0.201210000000     0.109810000000     0.470250000000    -0.17869    
N3       N      0.220530000000     0.908580000000     0.395070000000    -0.0314709  
N4       N      0.911500000000     0.831560000000     0.470350000000    -0.188679   
N5       N      0.113360000000     0.828040000000     0.458780000000    -0.178177   
N6       N      0.914190000000     0.822590000000     0.545570000000    -0.0315349  
N7       N      0.835590000000     0.113240000000     0.473230000000    -0.188179   
N8       N      0.831140000000     0.911650000000     0.477290000000    -0.178936   
N9       N      0.872900000000     0.110910000000     0.433340000000    -0.0313482  
N10      N      0.910340000000     0.200860000000     0.471540000000    -0.187713   
N11      N      0.111840000000     0.191880000000     0.455450000000    -0.179094   
N12      N      0.909340000000     0.226350000000     0.409120000000    -0.0316515  
N13      N      0.721840000000     0.723340000000     0.872690000000    -0.187666   
N14      N      0.802030000000     0.805080000000     0.578740000000    -0.179012   
N15      N      0.698750000000     0.759660000000     0.885270000000    -0.0315484  
N16      N      0.722430000000     0.714530000000     0.081890000000    -0.1879     
N17      N      0.805660000000     0.803160000000     0.366700000000    -0.179234   
N18      N      0.752890000000     0.683320000000     0.084620000000    -0.0317432  
N19      N      0.720010000000     0.300810000000     0.870910000000    -0.187711   
N20      N      0.804140000000     0.219750000000     0.579710000000    -0.178806   
N21      N      0.757540000000     0.321250000000     0.886500000000    -0.0314846  
N22      N      0.799910000000     0.218790000000     0.367190000000    -0.188019   
N23      N      0.716920000000     0.301640000000     0.077220000000    -0.178221   
N24      N      0.774920000000     0.183570000000     0.356390000000    -0.0316129  
N25      N      0.685050000000     0.408800000000     0.974150000000    -0.187675   
N26      N      0.694840000000     0.610370000000     0.975190000000    -0.178027   
N27      N      0.666440000000     0.411230000000     0.043750000000    -0.0313735  
N28      N      0.224440000000     0.800010000000     0.561380000000    -0.188834   
N29      N      0.307360000000     0.717830000000     0.851950000000    -0.178897   
N30      N      0.217670000000     0.759940000000     0.533400000000    -0.0316292  
N31      N      0.217290000000     0.802220000000     0.349580000000    -0.186718   
N32      N      0.305680000000     0.715990000000     0.067060000000    -0.179687   
N33      N      0.181460000000     0.778480000000     0.336180000000    -0.0315484  
N34      N      0.614110000000     0.689330000000     0.964160000000    -0.188016   
N35      N      0.412230000000     0.690420000000     0.965830000000    -0.179213   
N36      N      0.613400000000     0.668030000000     0.896930000000    -0.0314196  
N37      N      0.222120000000     0.213880000000     0.563760000000    -0.188648   
N38      N      0.303480000000     0.300620000000     0.851470000000    -0.179849   
N39      N      0.260460000000     0.216010000000     0.526980000000    -0.0317471  
N40      N      0.211000000000     0.217340000000     0.347750000000    -0.188139   
N41      N      0.299500000000     0.303490000000     0.065840000000    -0.179697   
N42      N      0.192510000000     0.187910000000     0.301240000000    -0.0314891  
N43      N      0.608290000000     0.322470000000     0.967950000000    -0.188132   
N44      N      0.406430000000     0.328240000000     0.968270000000    -0.179601   
N45      N      0.607040000000     0.322690000000     0.890980000000    -0.0316923  
N46      N      0.325560000000     0.610370000000     0.948310000000    -0.188776   
N47      N      0.319910000000     0.409330000000     0.951200000000    -0.179923   
N48      N      0.328290000000     0.611020000000     0.871430000000    -0.0318025  
O1       O      0.331050000000     0.309100000000     0.021060000000    -0.249545   
O2       O      0.300020000000     0.316200000000     0.917740000000    -0.249855   
O3       O      0.369200000000     0.312840000000     0.956300000000    -0.243424   
O4       O      0.324520000000     0.374680000000     0.988200000000    -0.246835   
O5       O      0.325180000000     0.372570000000     0.921220000000    -0.250219   
O6       O      0.371780000000     0.349630000000     0.972590000000    -0.250099   
O7       O      0.299020000000     0.328290000000     0.008730000000    -0.245179   
O8       O      0.333970000000     0.318290000000     0.887830000000    -0.246957   
O9       O      0.331900000000     0.644410000000     0.986650000000    -0.245479   
O10      O      0.375270000000     0.705970000000     0.951750000000    -0.243205   
O11      O      0.306080000000     0.689280000000     0.012640000000    -0.245188   
O12      O      0.305480000000     0.704980000000     0.920230000000    -0.248283   
O13      O      0.337960000000     0.699390000000     0.886740000000    -0.240485   
O14      O      0.335760000000     0.712760000000     0.018520000000    -0.250274   
O15      O      0.328650000000     0.648070000000     0.920390000000    -0.228283   
O16      O      0.377070000000     0.670500000000     0.975520000000    -0.247493   
O17      O      0.644280000000     0.331880000000     0.937500000000    -0.225122   
O18      O      0.679850000000     0.372330000000     0.005830000000    -0.224711   
O19      O      0.688030000000     0.304330000000     0.915550000000    -0.240755   
O20      O      0.690540000000     0.300990000000     0.022320000000    -0.243562   
O21      O      0.711150000000     0.332500000000     0.031240000000    -0.238412   
O22      O      0.716700000000     0.328640000000     0.923800000000    -0.224261   
O23      O      0.644190000000     0.323010000000     0.002480000000    -0.242459   
O24      O      0.688800000000     0.372690000000     0.940850000000    -0.239739   
O25      O      0.719600000000     0.691970000000     0.918770000000    -0.241054   
O26      O      0.692290000000     0.712730000000     0.033240000000    -0.240537   
O27      O      0.698920000000     0.646580000000     0.942770000000    -0.237414   
O28      O      0.651360000000     0.682310000000     0.936340000000    -0.225244   
O29      O      0.649350000000     0.694160000000     0.999760000000    -0.241402   
O30      O      0.686810000000     0.646270000000     0.006380000000    -0.242692   
O31      O      0.693190000000     0.718940000000     0.924020000000    -0.225303   
O32      O      0.721330000000     0.688850000000     0.025440000000    -0.226401   
O33      O      0.822200000000     0.149600000000     0.496440000000    -0.242794   
O34      O      0.873230000000     0.202810000000     0.440990000000    -0.220837   
O35      O      0.803380000000     0.194990000000     0.522430000000    -0.242129   
O36      O      0.810150000000     0.187280000000     0.409710000000    -0.225388   
O37      O      0.824190000000     0.221320000000     0.425010000000    -0.242222   
O38      O      0.835140000000     0.214830000000     0.533610000000    -0.244226   
O39      O      0.848090000000     0.149400000000     0.447540000000    -0.223607   
O40      O      0.875590000000     0.188590000000     0.502910000000    -0.243476   
O41      O      0.875050000000     0.826100000000     0.502280000000    -0.223609   
O42      O      0.822520000000     0.875410000000     0.447780000000    -0.243114   
O43      O      0.828610000000     0.804420000000     0.524000000000    -0.242385   
O44      O      0.834660000000     0.806790000000     0.416950000000    -0.247381   
O45      O      0.805660000000     0.831280000000     0.418940000000    -0.245496   
O46      O      0.807410000000     0.835570000000     0.531810000000    -0.24869    
O47      O      0.875360000000     0.840550000000     0.440460000000    -0.249408   
O48      O      0.843410000000     0.875790000000     0.503800000000    -0.243927   
O49      O      0.149200000000     0.836090000000     0.427270000000    -0.238935   
O50      O      0.180840000000     0.874020000000     0.485520000000    -0.249081   
O51      O      0.189070000000     0.804960000000     0.401990000000    -0.21929    
O52      O      0.200120000000     0.799450000000     0.503210000000    -0.225349   
O53      O      0.214140000000     0.832820000000     0.522410000000    -0.249984   
O54      O      0.218040000000     0.829340000000     0.403600000000    -0.234706   
O55      O      0.149660000000     0.824660000000     0.491260000000    -0.242694   
O56      O      0.205770000000     0.871130000000     0.435360000000    -0.220608   
O57      O      0.206680000000     0.146240000000     0.439260000000    -0.237926   
O58      O      0.149430000000     0.205420000000     0.470440000000    -0.243867   
O59      O      0.194650000000     0.185660000000     0.383390000000    -0.223758   
O60      O      0.221980000000     0.195330000000     0.499190000000    -0.227014   
O61      O      0.188510000000     0.201860000000     0.528600000000    -0.245708   
O62      O      0.203480000000     0.216550000000     0.418650000000    -0.243101   
O63      O      0.183910000000     0.144450000000     0.492970000000    -0.248404   
O64      O      0.146150000000     0.171090000000     0.442480000000    -0.244787   
O65      O      0.242640000000     0.911930000000     0.385350000000    -0.0918325  
O66      O      0.206490000000     0.898990000000     0.367690000000    -0.0782891  
O67      O      0.904020000000     0.840620000000     0.563380000000    -0.0793486  
O68      O      0.919360000000     0.804150000000     0.568030000000    -0.0923846  
O69      O      0.879600000000     0.104330000000     0.396220000000    -0.0888508  
O70      O      0.887370000000     0.123270000000     0.456190000000    -0.0821851  
O71      O      0.915410000000     0.225280000000     0.369950000000    -0.0889474  
O72      O      0.895350000000     0.243250000000     0.421420000000    -0.0780697  
O73      O      0.681470000000     0.771060000000     0.867550000000    -0.0902162  
O74      O      0.704520000000     0.764970000000     0.923470000000    -0.0796484  
O75      O      0.740630000000     0.663920000000     0.087850000000    -0.0791119  
O76      O      0.775500000000     0.681910000000     0.077270000000    -0.0911602  
O77      O      0.770180000000     0.338090000000     0.870100000000    -0.0910015  
O78      O      0.761990000000     0.314540000000     0.924550000000    -0.0801458  
O79      O      0.773130000000     0.166510000000     0.329300000000    -0.0899922  
O80      O      0.764110000000     0.181570000000     0.392130000000    -0.078885   
O81      O      0.646350000000     0.400410000000     0.038320000000    -0.0802439  
O82      O      0.672990000000     0.416710000000     0.081460000000    -0.0922076  
O83      O      0.204740000000     0.741640000000     0.542710000000    -0.0886756  
O84      O      0.227620000000     0.761000000000     0.496780000000    -0.0772768  
O85      O      0.175570000000     0.756280000000     0.338690000000    -0.0873346  
O86      O      0.164870000000     0.794310000000     0.332610000000    -0.0764102  
O87      O      0.608960000000     0.673590000000     0.858310000000    -0.0896788  
O88      O      0.623830000000     0.648020000000     0.904910000000    -0.0817172  
O89      O      0.280830000000     0.205370000000     0.529430000000    -0.093256   
O90      O      0.255700000000     0.228550000000     0.493980000000    -0.0801325  
O91      O      0.199210000000     0.170780000000     0.276780000000    -0.0917896  
O92      O      0.170320000000     0.189410000000     0.311860000000    -0.0805564  
O93      O      0.599750000000     0.336620000000     0.861360000000    -0.0919446  
O94      O      0.621140000000     0.305270000000     0.881610000000    -0.0788227  
O95      O      0.313250000000     0.608510000000     0.841030000000    -0.0928954  
O96      O      0.349100000000     0.619800000000     0.863450000000    -0.0804411  


