data_structure

_audit_creation_method RASPA-1.0
_audit_creation_date 2023-5-22
_audit_author_name 'Poobodin Mano'

_cell_length_a    43.5292
_cell_length_b    48.7998
_cell_length_c    45.7225
_cell_angle_alpha 90
_cell_angle_beta  90
_cell_angle_gamma 90
_cell_volume      97124.5

_symmetry_cell_setting          triclinic
_symmetry_space_group_name_Hall 'P 1'
_symmetry_space_group_name_H-M  'P 1'
_symmetry_Int_Tables_number     1

_symmetry_equiv_pos_as_xyz 'x,y,z'

loop_
_atom_site_label
_atom_site_type_symbol
_atom_site_fract_x
_atom_site_fract_y
_atom_site_fract_z
_atom_site_charge
C1       C      0.940500000000     0.378970000000     0.903600000000     0.345742   
C2       C      0.869780000000     0.380200000000     0.831820000000     0.346355   
C3       C      0.935920000000     0.304400000000     0.829320000000     0.345572   
C4       C      0.870980000000     0.303970000000     0.905140000000     0.346147   
C5       C      0.109040000000     0.622750000000     0.162890000000     0.34739    
C6       C      0.188430000000     0.554230000000     0.161600000000     0.346634   
C7       C      0.111020000000     0.554530000000     0.089710000000     0.347549   
C8       C      0.187370000000     0.626300000000     0.094210000000     0.348243   
C9       C      0.429880000000     0.803840000000     0.840520000000     0.345641   
C10      C      0.427400000000     0.880920000000     0.911610000000     0.347101   
C11      C      0.358850000000     0.876790000000     0.838870000000     0.345199   
C12      C      0.360900000000     0.802960000000     0.912480000000     0.345274   
C13      C      0.688110000000     0.128250000000     0.079840000000     0.346921   
C14      C      0.609640000000     0.061860000000     0.080590000000     0.347646   
C15      C      0.686330000000     0.059810000000     0.153320000000     0.348656   
C16      C      0.612400000000     0.131760000000     0.153130000000     0.348029   
C17      C      0.364960000000     0.376190000000     0.339710000000     0.345975   
C18      C      0.435130000000     0.301660000000     0.339220000000     0.346164   
C19      C      0.433040000000     0.375750000000     0.413710000000     0.346032   
C20      C      0.366410000000     0.299660000000     0.411530000000     0.346185   
C21      C      0.606950000000     0.628480000000     0.660050000000     0.34585    
C22      C      0.683220000000     0.555450000000     0.659990000000     0.346102   
C23      C      0.610720000000     0.553740000000     0.590790000000     0.345263   
C24      C      0.679900000000     0.631910000000     0.591710000000     0.346034   
C25      C      0.925190000000     0.800940000000     0.334210000000     0.348304   
C26      C      0.853570000000     0.873930000000     0.330460000000     0.34693    
C27      C      0.851290000000     0.808350000000     0.407790000000     0.34664    
C28      C      0.927980000000     0.875980000000     0.403630000000     0.348343   
C29      C      0.111400000000     0.047560000000     0.582070000000     0.34609    
C30      C      0.110160000000     0.124080000000     0.651940000000     0.346761   
C31      C      0.179420000000     0.048000000000     0.656050000000     0.346251   
C32      C      0.183410000000     0.121790000000     0.583790000000     0.345422   
C33      C      0.960980000000     0.937690000000     0.438830000000    -0.102743   
C34      C      0.069380000000     0.017000000000     0.575790000000     0.0719306  
C35      C      0.103480000000     0.025420000000     0.536350000000     0.0720531  
C36      C      0.051950000000     0.999370000000     0.558360000000    -0.0889305  
C37      C      0.030030000000     0.951750000000     0.520630000000    -0.0347302  
C38      C      0.011810000000     0.935080000000     0.502820000000    -0.0328351  
C39      C      0.041500000000     0.976800000000     0.510100000000    -0.00425058 
C40      C      0.086470000000     0.008050000000     0.518270000000    -0.088975   
C41      C      0.004500000000     0.943200000000     0.474160000000    -0.00740271 
C42      C      0.988430000000     0.897570000000     0.454210000000    -0.0924652  
C43      C      0.016140000000     0.968170000000     0.463570000000    -0.0329038  
C44      C      0.969320000000     0.881680000000     0.436540000000     0.0722394  
C45      C      0.941910000000     0.921360000000     0.421330000000     0.102951   
C46      C      0.034500000000     0.984750000000     0.481310000000    -0.0347144  
C47      C      0.060300000000     0.994840000000     0.529180000000     0.0496777  
C48      C      0.984410000000     0.925910000000     0.455480000000     0.0559141  
C49      C      0.738500000000     0.681960000000     0.567130000000    -0.102365   
C50      C      0.806980000000     0.780880000000     0.415810000000     0.072505   
C51      C      0.842060000000     0.788760000000     0.454590000000     0.0722764  
C52      C      0.788970000000     0.764300000000     0.433880000000    -0.0889072  
C53      C      0.766990000000     0.716880000000     0.471350000000    -0.0345067  
C54      C      0.750260000000     0.699420000000     0.489600000000    -0.032793   
C55      C      0.779410000000     0.741450000000     0.482240000000    -0.00409454 
C56      C      0.824590000000     0.772320000000     0.473260000000    -0.0887113  
C57      C      0.745570000000     0.706090000000     0.519170000000    -0.0071199  
C58      C      0.701770000000     0.674040000000     0.528930000000    -0.0922347  
C59      C      0.757810000000     0.730740000000     0.530020000000    -0.032911   
C60      C      0.686180000000     0.655990000000     0.547330000000     0.0720052  
C61      C      0.722510000000     0.663700000000     0.585280000000     0.102619   
C62      C      0.774530000000     0.748220000000     0.511770000000    -0.0347322  
C63      C      0.797780000000     0.759690000000     0.462940000000     0.0497704  
C64      C      0.728320000000     0.687200000000     0.538690000000     0.0557312  
C65      C      0.344730000000     0.250050000000     0.469340000000    -0.102427   
C66      C      0.188830000000     0.152740000000     0.543950000000     0.0720831  
C67      C      0.231780000000     0.142450000000     0.573890000000     0.0721814  
C68      C      0.206770000000     0.170170000000     0.526760000000    -0.0887351  
C69      C      0.254590000000     0.192480000000     0.484570000000    -0.0345971  
C70      C      0.272870000000     0.209810000000     0.467560000000    -0.0328715  
C71      C      0.257400000000     0.192280000000     0.515200000000    -0.0041345  
C72      C      0.250370000000     0.159770000000     0.557210000000    -0.0887378  
C73      C      0.294380000000     0.227380000000     0.480780000000    -0.00713036 
C74      C      0.301310000000     0.259760000000     0.438740000000    -0.092087   
C75      C      0.297200000000     0.227170000000     0.511420000000    -0.0329129  
C76      C      0.319640000000     0.277300000000     0.422180000000     0.0718886  
C77      C      0.362800000000     0.267780000000     0.452400000000     0.102508   
C78      C      0.278940000000     0.209810000000     0.528420000000    -0.034737   
C79      C      0.237950000000     0.173860000000     0.533280000000     0.0496524  
C80      C      0.313720000000     0.245940000000     0.462710000000     0.0555401  
C81      C      0.455850000000     0.420070000000     0.475860000000    -0.1025     
C82      C      0.605270000000     0.526700000000     0.547830000000     0.0720655  
C83      C      0.565490000000     0.527380000000     0.583240000000     0.0719811  
C84      C      0.588190000000     0.508930000000     0.530250000000    -0.088675   
C85      C      0.539220000000     0.485210000000     0.490240000000    -0.0346295  
C86      C      0.521390000000     0.467890000000     0.472800000000    -0.0327954  
C87      C      0.540320000000     0.481600000000     0.520730000000    -0.00412153 
C88      C      0.547810000000     0.509610000000     0.566230000000    -0.0888706  
C89      C      0.504230000000     0.446540000000     0.485430000000    -0.00721015 
C90      C      0.496150000000     0.418590000000     0.440100000000    -0.0921961  
C91      C      0.505390000000     0.442880000000     0.515910000000    -0.0329749  
C92      C      0.478070000000     0.401260000000     0.423040000000     0.071817   
C93      C      0.438000000000     0.402650000000     0.458360000000     0.10247    
C94      C      0.523230000000     0.460200000000     0.533350000000    -0.0347871  
C95      C      0.559030000000     0.500210000000     0.539310000000     0.0495416  
C96      C      0.485170000000     0.428180000000     0.466890000000     0.0555771  
C97      C      0.739040000000     0.033120000000     0.210230000000    -0.102432   
C98      C      0.847420000000     0.897540000000     0.285350000000     0.0718555  
C99      C      0.809680000000     0.901900000000     0.322440000000     0.0723628  
C100     C      0.831180000000     0.915620000000     0.267390000000    -0.0888689  
C101     C      0.783840000000     0.943070000000     0.228360000000    -0.0346083  
C102     C      0.767810000000     0.961820000000     0.211000000000    -0.0328567  
C103     C      0.786370000000     0.947050000000     0.258720000000    -0.00415223 
C104     C      0.792820000000     0.919990000000     0.305040000000    -0.0888816  
C105     C      0.753890000000     0.985000000000     0.223590000000    -0.00714874 
C106     C      0.717890000000     0.995950000000     0.182410000000    -0.0922881  
C107     C      0.756390000000     0.988960000000     0.253950000000    -0.0328582  
C108     C      0.701730000000     0.014860000000     0.165530000000     0.0721243  
C109     C      0.722570000000     0.051820000000     0.193000000000     0.103032   
C110     C      0.772450000000     0.970240000000     0.271300000000    -0.034709   
C111     C      0.803600000000     0.927240000000     0.277220000000     0.0495495  
C112     C      0.736740000000     0.004930000000     0.205160000000     0.0556641  
C113     C      0.575210000000     0.193400000000     0.184510000000    -0.102566   
C114     C      0.438270000000     0.270680000000     0.299170000000     0.072064   
C115     C      0.482920000000     0.281250000000     0.326660000000     0.0722291  
C116     C      0.455290000000     0.253490000000     0.280890000000    -0.0887034  
C117     C      0.494340000000     0.207040000000     0.256380000000    -0.0346951  
C118     C      0.511870000000     0.190520000000     0.237780000000    -0.0328132  
C119     C      0.505550000000     0.232560000000     0.265830000000    -0.00411476 
C120     C      0.500640000000     0.264300000000     0.308740000000    -0.0887161  
C121     C      0.540930000000     0.199220000000     0.228120000000    -0.00731332 
C122     C      0.561730000000     0.153610000000     0.212530000000    -0.0925384  
C123     C      0.552140000000     0.224730000000     0.237600000000    -0.0329012  
C124     C      0.579530000000     0.137660000000     0.193730000000     0.0719226  
C125     C      0.592900000000     0.177000000000     0.165790000000     0.102676   
C126     C      0.534680000000     0.241190000000     0.256270000000    -0.0347555  
C127     C      0.486910000000     0.250240000000     0.285450000000     0.0496341  
C128     C      0.559490000000     0.181830000000     0.208120000000     0.0557135  
C129     C      0.202750000000     0.004360000000     0.718510000000    -0.102496   
C130     C      0.353650000000     0.902760000000     0.795130000000     0.0721492  
C131     C      0.312370000000     0.900570000000     0.828880000000     0.0722569  
C132     C      0.336320000000     0.919380000000     0.776530000000    -0.0886272  
C133     C      0.300540000000     0.966600000000     0.749770000000    -0.0344788  
C134     C      0.282630000000     0.983240000000     0.731650000000    -0.0328822  
C135     C      0.287350000000     0.944290000000     0.764660000000    -0.00410488 
C136     C      0.294430000000     0.917190000000     0.810840000000    -0.0886734  
C137     C      0.251100000000     0.978010000000     0.728080000000    -0.00711967 
C138     C      0.242560000000     0.005080000000     0.682230000000    -0.0922     
C139     C      0.237940000000     0.955620000000     0.742800000000    -0.0330454  
C140     C      0.224290000000     0.022130000000     0.665020000000     0.0718362  
C141     C      0.184770000000     0.021580000000     0.700930000000     0.10267    
C142     C      0.255860000000     0.938940000000     0.760840000000    -0.0345688  
C143     C      0.306270000000     0.926760000000     0.784230000000     0.0496759  
C144     C      0.231900000000     0.996030000000     0.709330000000     0.0557365  
C145     C      0.541930000000     0.670760000000     0.686500000000    -0.102536   
C146     C      0.476300000000     0.779740000000     0.831060000000     0.0721419  
C147     C      0.434350000000     0.775750000000     0.798260000000     0.0720832  
C148     C      0.493960000000     0.762300000000     0.813630000000    -0.0886188  
C149     C      0.531540000000     0.738300000000     0.763980000000    -0.0346019  
C150     C      0.548940000000     0.721140000000     0.745980000000    -0.0328897  
C151     C      0.500170000000     0.733030000000     0.768810000000    -0.00409087 
C152     C      0.451380000000     0.758300000000     0.780290000000    -0.0886397  
C153     C      0.535370000000     0.698370000000     0.732300000000    -0.00726067 
C154     C      0.583400000000     0.672170000000     0.721030000000    -0.0925243  
C155     C      0.504040000000     0.693060000000     0.737130000000    -0.0329686  
C156     C      0.600320000000     0.654950000000     0.702800000000     0.0717656  
C157     C      0.559370000000     0.653550000000     0.668400000000     0.102539   
C158     C      0.486660000000     0.710160000000     0.755210000000    -0.0346667  
C159     C      0.481610000000     0.751390000000     0.787830000000     0.0495839  
C160     C      0.553820000000     0.680210000000     0.713030000000     0.0557198  
C161     C      0.448610000000     0.930810000000     0.969270000000    -0.102382   
C162     C      0.602810000000     0.033090000000     0.039140000000     0.0726339  
C163     C      0.561090000000     0.041280000000     0.071330000000     0.0721935  
C164     C      0.584530000000     0.015930000000     0.021980000000    -0.0889838  
C165     C      0.535480000000     0.992950000000     0.981450000000    -0.0346022  
C166     C      0.517400000000     0.975050000000     0.964930000000    -0.032842   
C167     C      0.534320000000     0.992430000000     0.012170000000    -0.00418097 
C168     C      0.542190000000     0.024160000000     0.054720000000    -0.0888306  
C169     C      0.497780000000     0.956160000000     0.978740000000    -0.00710755 
C170     C      0.490880000000     0.924170000000     0.936350000000    -0.0921768  
C171     C      0.496560000000     0.955720000000     0.009480000000    -0.0328534  
C172     C      0.472960000000     0.905850000000     0.920350000000     0.07203    
C173     C      0.430960000000     0.912310000000     0.952880000000     0.102766   
C174     C      0.514580000000     0.973670000000     0.025990000000    -0.0346373  
C175     C      0.553870000000     0.011160000000     0.029770000000     0.0498504  
C176     C      0.478840000000     0.936840000000     0.961200000000     0.0557007  
C177     C      0.953100000000     0.737350000000     0.298800000000    -0.102413   
C178     C      0.100230000000     0.647430000000     0.206920000000     0.072386   
C179     C      0.062930000000     0.648210000000     0.169150000000     0.0719027  
C180     C      0.082150000000     0.664760000000     0.224080000000    -0.0888309  
C181     C      0.048020000000     0.714000000000     0.248020000000    -0.0345675  
C182     C      0.029880000000     0.731610000000     0.264830000000    -0.0328454  
C183     C      0.034500000000     0.693020000000     0.231310000000    -0.00409265 
C184     C      0.044310000000     0.665640000000     0.185680000000    -0.0887869  
C185     C      0.997740000000     0.728750000000     0.265290000000    -0.00706339 
C186     C      0.985300000000     0.775250000000     0.285520000000    -0.0921611  
C187     C      0.984200000000     0.707850000000     0.248480000000    -0.0328744  
C188     C      0.967100000000     0.792370000000     0.302720000000     0.0721235  
C189     C      0.935040000000     0.754910000000     0.315930000000     0.102926   
C190     C      0.002350000000     0.690180000000     0.231740000000    -0.0347257  
C191     C      0.053850000000     0.674220000000     0.213500000000     0.0495011  
C192     C      0.978440000000     0.747370000000     0.283370000000     0.0556323  
C193     C      0.225750000000     0.688920000000     0.066590000000    -0.102766   
C194     C      0.359190000000     0.771600000000     0.952260000000     0.0716731  
C195     C      0.313960000000     0.781140000000     0.925200000000     0.0720537  
C196     C      0.342930000000     0.753780000000     0.970490000000    -0.0889304  
C197     C      0.305410000000     0.705870000000     0.994330000000    -0.0347228  
C198     C      0.288450000000     0.688610000000     0.012650000000    -0.0329293  
C199     C      0.293540000000     0.731410000000     0.985700000000    -0.00431139 
C200     C      0.296980000000     0.763610000000     0.943110000000    -0.0890036  
C201     C      0.259360000000     0.696630000000     0.022900000000    -0.0074276  
C202     C      0.238930000000     0.650380000000     0.036520000000    -0.0926214  
C203     C      0.247560000000     0.722220000000     0.014350000000    -0.0329073  
C204     C      0.221010000000     0.633700000000     0.054460000000     0.0724083  
C205     C      0.207990000000     0.671780000000     0.084470000000     0.103004   
C206     C      0.264420000000     0.739380000000     0.995910000000    -0.0347964  
C207     C      0.311400000000     0.749740000000     0.966140000000     0.0496066  
C208     C      0.241230000000     0.678370000000     0.042310000000     0.0559589  
C209     C      0.255360000000     0.515080000000     0.189290000000    -0.10233    
C210     C      0.318520000000     0.400070000000     0.329670000000     0.0721214  
C211     C      0.361430000000     0.405460000000     0.298250000000     0.0719518  
C212     C      0.301190000000     0.417880000000     0.312370000000    -0.0885244  
C213     C      0.276060000000     0.467980000000     0.281130000000    -0.0345549  
C214     C      0.258770000000     0.485530000000     0.263460000000    -0.0328253  
C215     C      0.296050000000     0.448630000000     0.268590000000    -0.00399292 
C216     C      0.344770000000     0.423370000000     0.280470000000    -0.0885853  
C217     C      0.261090000000     0.484190000000     0.232820000000    -0.00713596 
C218     C      0.211830000000     0.508140000000     0.220600000000    -0.092229   
C219     C      0.281150000000     0.464910000000     0.220280000000    -0.0328274  
C220     C      0.194650000000     0.525410000000     0.202650000000     0.0722846  
C221     C      0.237710000000     0.532460000000     0.171550000000     0.102718   
C222     C      0.298410000000     0.447330000000     0.237950000000    -0.0346351  
C223     C      0.314240000000     0.429770000000     0.287390000000     0.0495922  
C224     C      0.242530000000     0.502730000000     0.214020000000     0.0557638  
C225     C      0.955020000000     0.256230000000     0.769340000000    -0.102409   
C226     C      0.106330000000     0.155530000000     0.691480000000     0.0721665  
C227     C      0.062850000000     0.146700000000     0.661680000000     0.0722179  
C228     C      0.089250000000     0.173630000000     0.708650000000    -0.0887188  
C229     C      0.052080000000     0.222030000000     0.730750000000    -0.0346195  
C230     C      0.034720000000     0.239620000000     0.748320000000    -0.0329006  
C231     C      0.039590000000     0.197210000000     0.720640000000    -0.00408725 
C232     C      0.045080000000     0.164640000000     0.678430000000    -0.0887523  
C233     C      0.004450000000     0.232800000000     0.756200000000    -0.00721788 
C234     C      0.999490000000     0.264480000000     0.799070000000    -0.0923122  
C235     C      0.991910000000     0.208030000000     0.746000000000    -0.0328512  
C236     C      0.982010000000     0.281880000000     0.816580000000     0.071626   
C237     C      0.937830000000     0.273850000000     0.787220000000     0.102392   
C238     C      0.009270000000     0.190440000000     0.728420000000    -0.0347924  
C239     C      0.058210000000     0.178320000000     0.702310000000     0.0496722  
C240     C      0.986090000000     0.251410000000     0.775110000000     0.0555654  
C241     C      0.850480000000     0.253660000000     0.962670000000    -0.102317   
C242     C      0.694210000000     0.158150000000     0.039210000000     0.072297   
C243     C      0.737250000000     0.146740000000     0.068570000000     0.0719758  
C244     C      0.712490000000     0.174930000000     0.021630000000    -0.088875   
C245     C      0.760060000000     0.196640000000     0.978940000000    -0.0347197  
C246     C      0.778200000000     0.214040000000     0.961870000000    -0.0331101  
C247     C      0.763550000000     0.195940000000     0.009490000000    -0.00421198 
C248     C      0.756200000000     0.163390000000     0.051470000000    -0.0888974  
C249     C      0.800260000000     0.231150000000     0.974950000000    -0.00714639 
C250     C      0.806200000000     0.264450000000     0.933630000000    -0.0921554  
C251     C      0.803870000000     0.230330000000     0.005500000000    -0.0330068  
C252     C      0.824200000000     0.282170000000     0.916950000000     0.0715691  
C253     C      0.868210000000     0.271580000000     0.945610000000     0.102298   
C254     C      0.785730000000     0.212930000000     0.022570000000    -0.0346358  
C255     C      0.743880000000     0.177800000000     0.027700000000     0.049605   
C256     C      0.819230000000     0.249960000000     0.956830000000     0.0553896  
C257     C      0.845600000000     0.426530000000     0.771860000000    -0.102241   
C258     C      0.690420000000     0.527780000000     0.702250000000     0.0719486  
C259     C      0.730390000000     0.531850000000     0.667270000000     0.0720509  
C260     C      0.708630000000     0.510560000000     0.719420000000    -0.0887136  
C261     C      0.745960000000     0.462390000000     0.742100000000    -0.0346671  
C262     C      0.764590000000     0.445340000000     0.759080000000    -0.0327752  
C263     C      0.758260000000     0.485780000000     0.728480000000    -0.00408644 
C264     C      0.749240000000     0.514750000000     0.683940000000    -0.0886188  
C265     C      0.795950000000     0.451280000000     0.762890000000    -0.00714571 
C266     C      0.805010000000     0.421860000000     0.807000000000    -0.0921439  
C267     C      0.808220000000     0.474700000000     0.749320000000    -0.0328567  
C268     C      0.823750000000     0.404540000000     0.823400000000     0.0718676  
C269     C      0.864100000000     0.409060000000     0.788680000000     0.102516   
C270     C      0.789610000000     0.491740000000     0.732300000000    -0.0347367  
C271     C      0.738470000000     0.503900000000     0.710390000000     0.0495949  
C272     C      0.815780000000     0.433040000000     0.780840000000     0.0555398  
C273     C      0.005010000000     0.419000000000     0.934780000000    -0.102358   
C274     C      0.086780000000     0.511790000000     0.080190000000     0.0719261  
C275     C      0.083110000000     0.547820000000     0.045590000000     0.0722385  
C276     C      0.069500000000     0.494630000000     0.062100000000    -0.0887616  
C277     C      0.018630000000     0.468070000000     0.026580000000    -0.0346111  
C278     C      0.002100000000     0.450740000000     0.008000000000    -0.0328741  
C279     C      0.040860000000     0.486090000000     0.015270000000    -0.00412187 
C280     C      0.065750000000     0.531240000000     0.026970000000    -0.088935   
C281     C      0.007410000000     0.451020000000     0.977660000000    -0.00714919 
C282     C      0.958930000000     0.427310000000     0.962160000000    -0.0921363  
C283     C      0.029500000000     0.469170000000     0.966340000000    -0.0329784  
C284     C      0.943220000000     0.409500000000     0.943590000000     0.0716131  
C285     C      0.988800000000     0.401170000000     0.916340000000     0.102313   
C286     C      0.046030000000     0.486480000000     0.984910000000    -0.0347223  
C287     C      0.058820000000     0.504230000000     0.035060000000     0.0495346  
C288     C      0.990200000000     0.432260000000     0.957930000000     0.0554501  
Cd1      Cd     0.904080000000     0.342050000000     0.867890000000     0.509789   
Cd2      Cd     0.148520000000     0.589030000000     0.126950000000     0.508859   
Cd3      Cd     0.394530000000     0.841150000000     0.876210000000     0.509184   
Cd4      Cd     0.648960000000     0.095340000000     0.116900000000     0.509144   
Cd5      Cd     0.399840000000     0.338510000000     0.375640000000     0.509416   
Cd6      Cd     0.645460000000     0.592200000000     0.625710000000     0.509295   
Cd7      Cd     0.889870000000     0.839710000000     0.368780000000     0.50897    
Cd8      Cd     0.145850000000     0.085250000000     0.618330000000     0.509116   
H1       H      0.123570000000     0.035290000000     0.527070000000     0.0331521  
H2       H      0.973550000000     0.859780000000     0.436390000000     0.0341522  
H3       H      0.042770000000     0.004040000000     0.472640000000     0.0409917  
H4       H      0.003000000000     0.916040000000     0.511660000000     0.040454   
H5       H      0.006530000000     0.887660000000     0.466560000000     0.0566089  
H6       H      0.035260000000     0.944960000000     0.542630000000     0.0407016  
H7       H      0.957260000000     0.959650000000     0.439680000000     0.0599217  
H8       H      0.093930000000     0.004850000000     0.495930000000     0.0556593  
H9       H      0.031690000000     0.989780000000     0.567570000000     0.0555307  
H10      H      0.011150000000     0.974850000000     0.441480000000     0.0399651  
H11      H      0.061980000000     0.020160000000     0.598180000000     0.0328173  
H12      H      0.925460000000     0.946340000000     0.374360000000     0.0444963  
H13      H      0.862810000000     0.797930000000     0.463340000000     0.0330409  
H14      H      0.665740000000     0.646350000000     0.538490000000     0.0343141  
H15      H      0.783380000000     0.767180000000     0.520730000000     0.0406494  
H16      H      0.741530000000     0.680400000000     0.480660000000     0.0406222  
H17      H      0.692830000000     0.677790000000     0.507190000000     0.0564542  
H18      H      0.770730000000     0.710830000000     0.448840000000     0.0409083  
H19      H      0.759220000000     0.691740000000     0.575130000000     0.0596298  
H20      H      0.832450000000     0.769080000000     0.495460000000     0.055455   
H21      H      0.768190000000     0.755290000000     0.425110000000     0.0554436  
H22      H      0.754200000000     0.736680000000     0.552590000000     0.0397369  
H23      H      0.799430000000     0.783830000000     0.393430000000     0.0331241  
H24      H      0.725000000000     0.678020000000     0.639340000000     0.0444951  
H25      H      0.242320000000     0.131820000000     0.592150000000     0.033466   
H26      H      0.308630000000     0.287590000000     0.403960000000     0.0347118  
H27      H      0.281350000000     0.210450000000     0.551990000000     0.0406442  
H28      H      0.270450000000     0.209150000000     0.444000000000     0.0403907  
H29      H      0.277310000000     0.257440000000     0.432990000000     0.0564054  
H30      H      0.238550000000     0.178930000000     0.473670000000     0.0409796  
H31      H      0.355050000000     0.239200000000     0.487550000000     0.0593887  
H32      H      0.274440000000     0.161780000000     0.562830000000     0.0554575  
H33      H      0.196140000000     0.180930000000     0.508680000000     0.0555016  
H34      H      0.313180000000     0.240760000000     0.522340000000     0.0396734  
H35      H      0.164790000000     0.150490000000     0.538210000000     0.0332117  
H36      H      0.404400000000     0.291910000000     0.482890000000     0.0446225  
H37      H      0.555850000000     0.534330000000     0.603820000000     0.0325275  
H38      H      0.487920000000     0.394390000000     0.402520000000     0.0345389  
H39      H      0.523950000000     0.456580000000     0.556710000000     0.0404714  
H40      H      0.520650000000     0.471510000000     0.449430000000     0.0404028  
H41      H      0.518870000000     0.424100000000     0.432440000000     0.0564139  
H42      H      0.551720000000     0.501750000000     0.479860000000     0.0409692  
H43      H      0.446640000000     0.427550000000     0.496390000000     0.0594249  
H44      H      0.525240000000     0.503670000000     0.573930000000     0.0550842  
H45      H      0.597940000000     0.501880000000     0.509790000000     0.0554392  
H46      H      0.492840000000     0.426360000000     0.526270000000     0.0396679  
H47      H      0.627710000000     0.532980000000     0.540010000000     0.0332927  
H48      H      0.403800000000     0.370720000000     0.489020000000     0.0442646  
H49      H      0.800600000000     0.896940000000     0.343880000000     0.0334458  
H50      H      0.687260000000     0.006610000000     0.148340000000     0.033773   
H51      H      0.774250000000     0.974130000000     0.294550000000     0.0406611  
H52      H      0.766610000000     0.958290000000     0.187640000000     0.0402503  
H53      H      0.715130000000     0.974300000000     0.177890000000     0.0563705  
H54      H      0.794020000000     0.925300000000     0.217990000000     0.0405724  
H55      H      0.754030000000     0.040670000000     0.227370000000     0.0595315  
H56      H      0.771360000000     0.928090000000     0.313340000000     0.0555409  
H57      H      0.840570000000     0.920850000000     0.246180000000     0.055266   
H58      H      0.745650000000     0.006410000000     0.264430000000     0.0397707  
H59      H      0.868810000000     0.889230000000     0.277040000000     0.0325365  
H60      H      0.706970000000     0.094920000000     0.221700000000     0.0456509  
H61      H      0.494450000000     0.291790000000     0.344420000000     0.0336773  
H62      H      0.580540000000     0.115880000000     0.198360000000     0.0336559  
H63      H      0.543850000000     0.260850000000     0.262920000000     0.04094    
H64      H      0.502480000000     0.171070000000     0.230670000000     0.0404535  
H65      H      0.550160000000     0.143850000000     0.230730000000     0.0563868  
H66      H      0.472100000000     0.199700000000     0.263560000000     0.0408671  
H67      H      0.573450000000     0.215230000000     0.180400000000     0.0598174  
H68      H      0.524940000000     0.262080000000     0.313300000000     0.0555925  
H69      H      0.443810000000     0.243220000000     0.262950000000     0.0556561  
H70      H      0.574580000000     0.231890000000     0.230790000000     0.039865   
H71      H      0.413910000000     0.272830000000     0.294760000000     0.0329792  
H72      H      0.640000000000     0.202740000000     0.145890000000     0.0449227  
H73      H      0.302330000000     0.893610000000     0.849270000000     0.0337264  
H74      H      0.233800000000     0.028530000000     0.644190000000     0.034373   
H75      H      0.245070000000     0.921640000000     0.771550000000     0.0407208  
H76      H      0.293350000000     0.000550000000     0.720900000000     0.0407108  
H77      H      0.264880000000     0.998820000000     0.674130000000     0.0564641  
H78      H      0.324620000000     0.971540000000     0.752540000000     0.0407984  
H79      H      0.194070000000     0.997750000000     0.739590000000     0.0597217  
H80      H      0.271510000000     0.922720000000     0.817910000000     0.0554641  
H81      H      0.346290000000     0.926040000000     0.756020000000     0.0554105  
H82      H      0.213820000000     0.950790000000     0.740120000000     0.0398642  
H83      H      0.376740000000     0.897380000000     0.788290000000     0.0331561  
H84      H      0.127160000000     0.010970000000     0.705950000000     0.0445272  
H85      H      0.411110000000     0.780710000000     0.791550000000     0.0330981  
H86      H      0.623110000000     0.649300000000     0.710250000000     0.0337451  
H87      H      0.462700000000     0.705240000000     0.758830000000     0.0405471  
H88      H      0.572930000000     0.725980000000     0.742370000000     0.0402767  
H89      H      0.593370000000     0.678800000000     0.741550000000     0.056336   
H90      H      0.542560000000     0.755970000000     0.773730000000     0.0408375  
H91      H      0.519130000000     0.677020000000     0.679660000000     0.059653   
H92      H      0.441010000000     0.750650000000     0.760360000000     0.0553138  
H93      H      0.517060000000     0.757190000000     0.820550000000     0.0553583  
H94      H      0.493040000000     0.675430000000     0.727260000000     0.0399944  
H95      H      0.486720000000     0.787740000000     0.850830000000     0.0334774  
H96      H      0.525600000000     0.619190000000     0.640410000000     0.0459366  
H97      H      0.551200000000     0.050920000000     0.090500000000     0.0330395  
H98      H      0.483670000000     0.896500000000     0.901400000000     0.0343975  
H99      H      0.513510000000     0.972460000000     0.049620000000     0.0409228  
H100     H      0.518540000000     0.976230000000     0.941300000000     0.0403014  
H101     H      0.514300000000     0.927980000000     0.929470000000     0.0563815  
H102     H      0.550130000000     0.007440000000     0.970140000000     0.0408529  
H103     H      0.438530000000     0.940780000000     0.988160000000     0.0595865  
H104     H      0.518500000000     0.021320000000     0.061300000000     0.0555488  
H105     H      0.594580000000     0.006050000000     0.003050000000     0.0556085  
H106     H      0.482090000000     0.941140000000     0.020830000000     0.0399817  
H107     H      0.626500000000     0.036050000000     0.032510000000     0.0331672  
H108     H      0.392520000000     0.885690000000     0.984730000000     0.0462555  
H109     H      0.054800000000     0.642220000000     0.147660000000     0.0326067  
H110     H      0.973480000000     0.813840000000     0.303420000000     0.0338891  
H111     H      0.991170000000     0.674090000000     0.219390000000     0.0405522  
H112     H      0.041120000000     0.747280000000     0.277740000000     0.0403016  
H113     H      0.004470000000     0.784010000000     0.273660000000     0.0562263  
H114     H      0.072670000000     0.717020000000     0.247920000000     0.0406937  
H115     H      0.947620000000     0.715690000000     0.297980000000     0.0596347  
H116     H      0.022810000000     0.672700000000     0.176440000000     0.0551712  
H117     H      0.090230000000     0.670470000000     0.245630000000     0.0556124  
H118     H      0.959500000000     0.705250000000     0.248050000000     0.0397114  
H119     H      0.121990000000     0.640630000000     0.215910000000     0.0334722  
H120     H      0.878430000000     0.739940000000     0.317620000000     0.046066   
H121     H      0.301920000000     0.791510000000     0.907630000000     0.0336174  
H122     H      0.219820000000     0.612170000000     0.048690000000     0.0338175  
H123     H      0.254780000000     0.759040000000     0.989880000000     0.0409219  
H124     H      0.298240000000     0.669100000000     0.019030000000     0.04036    
H125     H      0.250420000000     0.641410000000     0.017810000000     0.056469   
H126     H      0.327680000000     0.699060000000     0.986640000000     0.0407785  
H127     H      0.227650000000     0.710530000000     0.071800000000     0.0598806  
H128     H      0.272720000000     0.760790000000     0.938760000000     0.0556486  
H129     H      0.354900000000     0.743630000000     0.988220000000     0.0554954  
H130     H      0.225090000000     0.728860000000     0.021650000000     0.0400397  
H131     H      0.383500000000     0.774370000000     0.956500000000     0.0326139  
H132     H      0.161400000000     0.696960000000     0.106200000000     0.0454355  
H133     H      0.384990000000     0.401070000000     0.292150000000     0.0330101  
H134     H      0.170880000000     0.528700000000     0.208820000000     0.0345006  
H135     H      0.313210000000     0.432380000000     0.227560000000     0.0408252  
H136     H      0.243880000000     0.500430000000     0.273810000000     0.040595   
H137     H      0.200850000000     0.498760000000     0.239360000000     0.0565339  
H138     H      0.274050000000     0.469830000000     0.304660000000     0.0409079  
H139     H      0.279300000000     0.511500000000     0.183960000000     0.0596256  
H140     H      0.355910000000     0.432370000000     0.261590000000     0.0553839  
H141     H      0.277550000000     0.421960000000     0.318350000000     0.0555539  
H142     H      0.283120000000     0.463070000000     0.196740000000     0.039953   
H143     H      0.307520000000     0.391210000000     0.348740000000     0.033713   
H144     H      0.253750000000     0.529810000000     0.117510000000     0.0456024  
H145     H      0.051840000000     0.136500000000     0.643400000000     0.0333074  
H146     H      0.993690000000     0.291380000000     0.834920000000     0.0345185  
H147     H      0.999120000000     0.171290000000     0.721380000000     0.0408766  
H148     H      0.044900000000     0.258740000000     0.755420000000     0.0404203  
H149     H      0.023380000000     0.261040000000     0.804580000000     0.056266   
H150     H      0.075200000000     0.228060000000     0.724780000000     0.0407541  
H151     H      0.944190000000     0.246600000000     0.750630000000     0.0595876  
H152     H      0.021280000000     0.167940000000     0.672510000000     0.0555166  
H153     H      0.100230000000     0.183510000000     0.727110000000     0.0555242  
H154     H      0.968830000000     0.201970000000     0.752030000000     0.0397053  
H155     H      0.130220000000     0.152330000000     0.697260000000     0.0333267  
H156     H      0.881370000000     0.258880000000     0.791200000000     0.0446352  
H157     H      0.747670000000     0.135950000000     0.086780000000     0.0330677  
H158     H      0.812720000000     0.292940000000     0.899320000000     0.0342719  
H159     H      0.788680000000     0.213190000000     0.046090000000     0.0407631  
H160     H      0.775180000000     0.213840000000     0.938360000000     0.0399785  
H161     H      0.781990000000     0.262490000000     0.928550000000     0.0562257  
H162     H      0.743520000000     0.183510000000     0.968140000000     0.0406977  
H163     H      0.861250000000     0.242320000000     0.980290000000     0.0593845  
H164     H      0.780410000000     0.164730000000     0.056710000000     0.0554041  
H165     H      0.701920000000     0.185950000000     0.003700000000     0.055505   
H166     H      0.820310000000     0.243550000000     0.016320000000     0.0405202  
H167     H      0.669990000000     0.156650000000     0.033900000000     0.0334426  
H168     H      0.923870000000     0.254770000000     0.940030000000     0.0450243  
H169     H      0.739580000000     0.539800000000     0.646930000000     0.0335926  
H170     H      0.814090000000     0.396510000000     0.843520000000     0.0344702  
H171     H      0.799680000000     0.509830000000     0.722480000000     0.0408763  
H172     H      0.754510000000     0.427230000000     0.768850000000     0.0404807  
H173     H      0.782220000000     0.426670000000     0.815020000000     0.0563104  
H174     H      0.722010000000     0.457000000000     0.739250000000     0.0408341  
H175     H      0.854390000000     0.434690000000     0.751450000000     0.0595188  
H176     H      0.772010000000     0.509840000000     0.675940000000     0.0555692  
H177     H      0.699510000000     0.502880000000     0.739880000000     0.0554381  
H178     H      0.832170000000     0.480110000000     0.752170000000     0.0396671  
H179     H      0.667540000000     0.532570000000     0.710100000000     0.0330903  
H180     H      0.921320000000     0.421710000000     0.785320000000     0.0440837  
H181     H      0.088000000000     0.568570000000     0.038490000000     0.0329489  
H182     H      0.918960000000     0.406530000000     0.947940000000     0.0338491  
H183     H      0.063200000000     0.499890000000     0.975490000000     0.0405214  
H184     H      0.985470000000     0.436830000000     0.017480000000     0.0404661  
H185     H      0.946430000000     0.437400000000     0.979590000000     0.0562998  
H186     H      0.013820000000     0.467450000000     0.049810000000     0.0407518  
H187     H      0.029390000000     0.422170000000     0.931290000000     0.059499   
H188     H      0.057600000000     0.539660000000     0.006480000000     0.0553438  
H189     H      0.065040000000     0.473800000000     0.069090000000     0.0554561  
H190     H      0.033910000000     0.470140000000     0.943050000000     0.0395214  
H191     H      0.094780000000     0.503500000000     0.100840000000     0.0327279  
H192     H      0.009560000000     0.401890000000     0.863700000000     0.0447189  
N1       N      0.946060000000     0.893180000000     0.420240000000    -0.183492   
N2       N      0.094850000000     0.029990000000     0.564810000000    -0.180282   
N3       N      0.696320000000     0.650500000000     0.575240000000    -0.183121   
N4       N      0.833420000000     0.792820000000     0.426050000000    -0.180004   
N5       N      0.350130000000     0.281590000000     0.428760000000    -0.183147   
N6       N      0.201280000000     0.138960000000     0.567280000000    -0.179902   
N7       N      0.449220000000     0.393140000000     0.431820000000    -0.183184   
N8       N      0.593930000000     0.535930000000     0.574040000000    -0.180103   
N9       N      0.703630000000     0.042610000000     0.170660000000    -0.183565   
N10      N      0.836860000000     0.890950000000     0.312730000000    -0.180325   
N11      N      0.595160000000     0.148980000000     0.170500000000    -0.18359    
N12      N      0.452030000000     0.284530000000     0.321780000000    -0.180125   
N13      N      0.195680000000     0.030650000000     0.674100000000    -0.183244   
N14      N      0.341710000000     0.893370000000     0.821040000000    -0.179943   
N15      N      0.588720000000     0.645550000000     0.676650000000    -0.183281   
N16      N      0.446770000000     0.786450000000     0.823370000000    -0.180069   
N17      N      0.443290000000     0.899630000000     0.928380000000    -0.183466   
N18      N      0.591210000000     0.045540000000     0.063680000000    -0.180287   
N19      N      0.942050000000     0.782590000000     0.317850000000    -0.183616   
N20      N      0.090730000000     0.639330000000     0.179640000000    -0.180344   
N21      N      0.205320000000     0.644060000000     0.078160000000    -0.183412   
N22      N      0.344760000000     0.785230000000     0.929880000000    -0.180219   
N23      N      0.207140000000     0.537580000000     0.178220000000    -0.18306    
N24      N      0.348370000000     0.393870000000     0.322620000000    -0.180102   
N25      N      0.951420000000     0.286760000000     0.810970000000    -0.183141   
N26      N      0.093180000000     0.142110000000     0.668250000000    -0.180165   
N27      N      0.854960000000     0.285960000000     0.922660000000    -0.183324   
N28      N      0.706490000000     0.144260000000     0.062550000000    -0.180219   
N29      N      0.853040000000     0.397890000000     0.814530000000    -0.183199   
N30      N      0.701260000000     0.538370000000     0.676420000000    -0.180166   
N31      N      0.957730000000     0.396370000000     0.920800000000    -0.183126   
N32      N      0.093630000000     0.538120000000     0.071920000000    -0.180591   
O1       O      0.896830000000     0.372740000000     0.825690000000    -0.250913   
O2       O      0.899150000000     0.309290000000     0.908720000000    -0.25145    
O3       O      0.951450000000     0.366260000000     0.881900000000    -0.246099   
O4       O      0.949120000000     0.316100000000     0.850660000000    -0.246263   
O5       O      0.907820000000     0.310240000000     0.826220000000    -0.250164   
O6       O      0.912280000000     0.374540000000     0.908580000000    -0.252175   
O7       O      0.858830000000     0.369990000000     0.855080000000    -0.247495   
O8       O      0.858250000000     0.316560000000     0.884140000000    -0.248169   
O9       O      0.160540000000     0.558420000000     0.168270000000    -0.246627   
O10      O      0.184600000000     0.601230000000     0.087370000000    -0.247343   
O11      O      0.135280000000     0.614900000000     0.171470000000    -0.247536   
O12      O      0.121070000000     0.546350000000     0.114190000000    -0.252935   
O13      O      0.118260000000     0.578760000000     0.082600000000    -0.249868   
O14      O      0.100970000000     0.614650000000     0.137700000000    -0.252042   
O15      O      0.197540000000     0.566340000000     0.138750000000    -0.249621   
O16      O      0.172200000000     0.633680000000     0.116410000000    -0.251319   
O17      O      0.438950000000     0.870300000000     0.888840000000    -0.248939   
O18      O      0.348390000000     0.815680000000     0.891460000000    -0.247064   
O19      O      0.440790000000     0.814590000000     0.863520000000    -0.247259   
O20      O      0.386070000000     0.869810000000     0.832490000000    -0.250051   
O21      O      0.348340000000     0.867330000000     0.862660000000    -0.246252   
O22      O      0.402480000000     0.810340000000     0.834230000000    -0.250875   
O23      O      0.400600000000     0.872850000000     0.917780000000    -0.251568   
O24      O      0.389160000000     0.807870000000     0.916570000000    -0.251964   
O25      O      0.637700000000     0.065800000000     0.074550000000    -0.248881   
O26      O      0.627250000000     0.139980000000     0.131070000000    -0.250731   
O27      O      0.659560000000     0.125730000000     0.075120000000    -0.247542   
O28      O      0.670170000000     0.050820000000     0.132350000000    -0.252432   
O29      O      0.684970000000     0.085420000000     0.157220000000    -0.248448   
O30      O      0.698540000000     0.115260000000     0.101690000000    -0.25027    
O31      O      0.599770000000     0.073680000000     0.103420000000    -0.25068    
O32      O      0.614530000000     0.106310000000     0.158280000000    -0.249983   
O33      O      0.406680000000     0.305600000000     0.335130000000    -0.251903   
O34      O      0.394340000000     0.305450000000     0.415980000000    -0.250573   
O35      O      0.392450000000     0.369780000000     0.333760000000    -0.252073   
O36      O      0.444170000000     0.367020000000     0.389850000000    -0.247367   
O37      O      0.406330000000     0.367220000000     0.419550000000    -0.25071    
O38      O      0.353710000000     0.365150000000     0.362370000000    -0.247478   
O39      O      0.447070000000     0.314740000000     0.360280000000    -0.247179   
O40      O      0.354140000000     0.311960000000     0.390080000000    -0.246717   
O41      O      0.656380000000     0.562210000000     0.667900000000    -0.250401   
O42      O      0.655830000000     0.620420000000     0.582040000000    -0.249037   
O43      O      0.633260000000     0.620770000000     0.668660000000    -0.249918   
O44      O      0.600870000000     0.562820000000     0.615000000000    -0.249318   
O45      O      0.636900000000     0.562360000000     0.582900000000    -0.248709   
O46      O      0.598890000000     0.619340000000     0.635350000000    -0.248004   
O47      O      0.692430000000     0.565620000000     0.636060000000    -0.249535   
O48      O      0.687710000000     0.624800000000     0.617230000000    -0.248204   
O49      O      0.878820000000     0.863480000000     0.322330000000    -0.251636   
O50      O      0.933320000000     0.850500000000     0.401730000000    -0.248267   
O51      O      0.933060000000     0.825830000000     0.336860000000    -0.249453   
O52      O      0.844320000000     0.812150000000     0.381180000000    -0.246659   
O53      O      0.876060000000     0.819420000000     0.416350000000    -0.250224   
O54      O      0.900830000000     0.794430000000     0.347490000000    -0.25196    
O55      O      0.845010000000     0.868100000000     0.356210000000    -0.247516   
O56      O      0.904860000000     0.884230000000     0.389460000000    -0.251672   
O57      O      0.098810000000     0.111130000000     0.630490000000    -0.249065   
O58      O      0.194170000000     0.108530000000     0.605310000000    -0.247031   
O59      O      0.103660000000     0.052870000000     0.608160000000    -0.250119   
O60      O      0.153840000000     0.058290000000     0.663100000000    -0.2489     
O61      O      0.189440000000     0.055140000000     0.631150000000    -0.248377   
O62      O      0.135220000000     0.059690000000     0.572840000000    -0.250615   
O63      O      0.138110000000     0.119140000000     0.657570000000    -0.250895   
O64      O      0.155150000000     0.118120000000     0.578390000000    -0.249746   
S1       S      0.913640000000     0.939170000000     0.401050000000    -0.0264077  
S2       S      0.737920000000     0.659250000000     0.620750000000    -0.0252918  
S3       S      0.401640000000     0.270830000000     0.463260000000    -0.0275954  
S4       S      0.401440000000     0.394070000000     0.472520000000    -0.0272796  
S5       S      0.728300000000     0.086810000000     0.201430000000    -0.0267445  
S6       S      0.611450000000     0.194480000000     0.136870000000    -0.0260456  
S7       S      0.148170000000     0.030030000000     0.715120000000    -0.0252835  
S8       S      0.541320000000     0.643100000000     0.635600000000    -0.0258932  
S9       S      0.392950000000     0.907100000000     0.965350000000    -0.0270194  
S10      S      0.904230000000     0.739200000000     0.334770000000    -0.0273336  
S11      S      0.189900000000     0.687940000000     0.114510000000    -0.0266875  
S12      S      0.257040000000     0.546800000000     0.141170000000    -0.0264969  
S13      S      0.898900000000     0.278150000000     0.777180000000    -0.0258316  
S14      S      0.907440000000     0.273970000000     0.955310000000    -0.0266462  
S15      S      0.901220000000     0.402600000000     0.774560000000    -0.0260749  
S16      S      0.010620000000     0.385720000000     0.888180000000    -0.0249012  


