data_structure

_audit_creation_method RASPA-1.0
_audit_creation_date 2023-6-5
_audit_author_name 'Poobodin Mano'

_cell_length_a    56.381
_cell_length_b    56.4177
_cell_length_c    32.0217
_cell_angle_alpha 90.0318
_cell_angle_beta  89.9177
_cell_angle_gamma 90
_cell_volume      101857

_symmetry_cell_setting          triclinic
_symmetry_space_group_name_Hall 'P 1'
_symmetry_space_group_name_H-M  'P 1'
_symmetry_Int_Tables_number     1

_symmetry_equiv_pos_as_xyz 'x,y,z'

loop_
_atom_site_label
_atom_site_type_symbol
_atom_site_fract_x
_atom_site_fract_y
_atom_site_fract_z
_atom_site_charge
C1       C      0.336580000000     0.343500000000     0.052120000000     0.346867   
C2       C      0.409140000000     0.358040000000     0.977300000000     0.346935   
C3       C      0.339030000000     0.341050000000     0.905610000000     0.345985   
C4       C      0.350280000000     0.414870000000     0.977960000000     0.348814   
C5       C      0.352520000000     0.665010000000     0.980370000000     0.345926   
C6       C      0.341060000000     0.739330000000     0.063310000000     0.346988   
C7       C      0.409500000000     0.722880000000     0.998220000000     0.344581   
C8       C      0.335810000000     0.733940000000     0.915940000000     0.344958   
C9       C      0.659260000000     0.348020000000     0.983490000000     0.346092   
C10      C      0.733620000000     0.332470000000     0.906210000000     0.345398   
C11      C      0.715760000000     0.404250000000     0.969280000000     0.34602    
C12      C      0.729340000000     0.330610000000     0.051290000000     0.346799   
C13      C      0.715490000000     0.654380000000     0.989180000000     0.347238   
C14      C      0.730750000000     0.727620000000     0.918970000000     0.347514   
C15      C      0.659350000000     0.713640000000     0.993240000000     0.347599   
C16      C      0.732830000000     0.725680000000     0.064200000000     0.34776    
C17      C      0.854860000000     0.154730000000     0.479680000000     0.346474   
C18      C      0.839340000000     0.227740000000     0.550100000000     0.346635   
C19      C      0.911090000000     0.212040000000     0.476470000000     0.34874    
C20      C      0.836510000000     0.225980000000     0.405350000000     0.347819   
C21      C      0.835860000000     0.835510000000     0.565670000000     0.345398   
C22      C      0.909340000000     0.844900000000     0.483700000000     0.345191   
C23      C      0.840130000000     0.830700000000     0.417950000000     0.34699    
C24      C      0.853930000000     0.904600000000     0.500060000000     0.34585    
C25      C      0.234120000000     0.845070000000     0.416540000000     0.34609    
C26      C      0.158890000000     0.850910000000     0.494400000000     0.346202   
C27      C      0.226670000000     0.838410000000     0.564050000000     0.346172   
C28      C      0.214860000000     0.912490000000     0.485840000000     0.34602    
C29      C      0.231920000000     0.236050000000     0.406200000000     0.34598    
C30      C      0.219440000000     0.162650000000     0.490290000000     0.345923   
C31      C      0.234960000000     0.232410000000     0.552340000000     0.346407   
C32      C      0.161380000000     0.217580000000     0.468700000000     0.345813   
C33      C      0.235770000000     0.947440000000     0.505130000000     0.0722853  
C34      C      0.237580000000     0.972120000000     0.506830000000    -0.0887541  
C35      C      0.220070000000     0.986250000000     0.488340000000     0.0499877  
C36      C      0.201270000000     0.975040000000     0.467660000000    -0.0889407  
C37      C      0.200030000000     0.950340000000     0.466540000000     0.0723634  
C38      C      0.221120000000     0.012530000000     0.491120000000    -0.00445336 
C39      C      0.242740000000     0.024640000000     0.486210000000    -0.0339921  
C40      C      0.243540000000     0.049390000000     0.488290000000    -0.0338843  
C41      C      0.222750000000     0.062570000000     0.495460000000    -0.0045495  
C42      C      0.201200000000     0.050410000000     0.500780000000    -0.0337427  
C43      C      0.200390000000     0.025710000000     0.498650000000    -0.0339149  
C44      C      0.223300000000     0.088910000000     0.496200000000     0.0499883  
C45      C      0.236900000000     0.101570000000     0.467130000000    -0.088588   
C46      C      0.235880000000     0.126300000000     0.466320000000     0.0724968  
C47      C      0.208910000000     0.126380000000     0.523200000000     0.0723882  
C48      C      0.209510000000     0.101660000000     0.524890000000    -0.0889815  
C49      C      0.946830000000     0.854510000000     0.454090000000     0.072213   
C50      C      0.971550000000     0.852830000000     0.454020000000    -0.0886726  
C51      C      0.983000000000     0.837980000000     0.482700000000     0.0499195  
C52      C      0.969070000000     0.824510000000     0.510090000000    -0.0888134  
C53      C      0.944400000000     0.826590000000     0.509260000000     0.0723478  
C54      C      0.009310000000     0.837310000000     0.485130000000    -0.00453606 
C55      C      0.023210000000     0.837560000000     0.448640000000    -0.034004   
C56      C      0.047950000000     0.838200000000     0.451120000000    -0.0338365  
C57      C      0.059360000000     0.838680000000     0.490130000000    -0.00452568 
C58      C      0.045470000000     0.837970000000     0.526600000000    -0.0340213  
C59      C      0.020750000000     0.837270000000     0.524130000000    -0.0338183  
C60      C      0.085590000000     0.840820000000     0.492740000000     0.0499658  
C61      C      0.100350000000     0.828160000000     0.465480000000    -0.0887523  
C62      C      0.124910000000     0.831350000000     0.467070000000     0.0723338  
C63      C      0.120680000000     0.858950000000     0.522450000000     0.0724426  
C64      C      0.096080000000     0.856150000000     0.521790000000    -0.0888322  
C65      C      0.840010000000     0.119930000000     0.512540000000     0.0722609  
C66      C      0.838820000000     0.095260000000     0.515860000000    -0.0887135  
C67      C      0.851200000000     0.080980000000     0.487420000000     0.050008   
C68      C      0.864170000000     0.092010000000     0.455550000000    -0.0890362  
C69      C      0.864900000000     0.116700000000     0.453060000000     0.0725429  
C70      C      0.850980000000     0.054740000000     0.491340000000    -0.00462874 
C71      C      0.829890000000     0.042530000000     0.500710000000    -0.0338448  
C72      C      0.829780000000     0.017810000000     0.504040000000    -0.0340639  
C73      C      0.850800000000     0.004780000000     0.498370000000    -0.00447864 
C74      C      0.871900000000     0.017020000000     0.489280000000    -0.0339234  
C75      C      0.871980000000     0.041690000000     0.485770000000    -0.0338487  
C76      C      0.850780000000     0.978480000000     0.501110000000     0.0499546  
C77      C      0.832650000000     0.965120000000     0.482690000000    -0.0886701  
C78      C      0.833720000000     0.940370000000     0.483370000000     0.0723379  
C79      C      0.869790000000     0.941720000000     0.521270000000     0.0722139  
C80      C      0.869330000000     0.966470000000     0.521050000000    -0.0889602  
C81      C      0.946060000000     0.227650000000     0.445150000000     0.0725076  
C82      C      0.970770000000     0.229400000000     0.442980000000    -0.0889087  
C83      C      0.984860000000     0.217280000000     0.471930000000     0.0502234  
C84      C      0.973640000000     0.204010000000     0.503180000000    -0.0893486  
C85      C      0.948930000000     0.202780000000     0.504610000000     0.072715   
C86      C      0.011130000000     0.218030000000     0.469210000000    -0.00472448 
C87      C      0.023090000000     0.239490000000     0.461730000000    -0.03395    
C88      C      0.047870000000     0.240100000000     0.459800000000    -0.033999   
C89      C      0.061180000000     0.219220000000     0.464870000000    -0.00466686 
C90      C      0.049180000000     0.197760000000     0.471950000000    -0.0338726  
C91      C      0.024460000000     0.197180000000     0.474200000000    -0.0339439  
C92      C      0.087500000000     0.219740000000     0.463610000000     0.0500657  
C93      C      0.100190000000     0.237380000000     0.484780000000    -0.0887641  
C94      C      0.124960000000     0.236650000000     0.485520000000     0.0722737  
C95      C      0.124930000000     0.201990000000     0.443590000000     0.0721465  
C96      C      0.100180000000     0.202100000000     0.442420000000    -0.0891594  
C97      C      0.764720000000     0.739210000000     0.879920000000     0.0725436  
C98      C      0.775000000000     0.750410000000     0.845480000000    -0.0888714  
C99      C      0.760590000000     0.760980000000     0.815140000000     0.0500979  
C100     C      0.735940000000     0.759960000000     0.820280000000    -0.0888659  
C101     C      0.726250000000     0.748700000000     0.855190000000     0.0724528  
C102     C      0.771240000000     0.772980000000     0.778330000000    -0.00453455 
C103     C      0.791310000000     0.787520000000     0.782940000000    -0.0339122  
C104     C      0.801560000000     0.798540000000     0.748270000000    -0.0340217  
C105     C      0.792030000000     0.795220000000     0.708120000000    -0.00433664 
C106     C      0.771830000000     0.780840000000     0.703580000000    -0.0338059  
C107     C      0.761530000000     0.769880000000     0.738290000000    -0.0338891  
C108     C      0.803440000000     0.806310000000     0.671050000000     0.0498349  
C109     C      0.828200000000     0.807270000000     0.667630000000    -0.0885874  
C110     C      0.838710000000     0.817310000000     0.632340000000     0.0722511  
C111     C      0.800890000000     0.825630000000     0.603580000000     0.0720319  
C112     C      0.789770000000     0.815750000000     0.638510000000    -0.0886006  
C113     C      0.752930000000     0.721030000000     0.128950000000     0.0724364  
C114     C      0.764130000000     0.730650000000     0.163970000000    -0.0887123  
C115     C      0.766220000000     0.755280000000     0.168150000000     0.0500476  
C116     C      0.756800000000     0.769730000000     0.136730000000    -0.0888244  
C117     C      0.745620000000     0.759530000000     0.102240000000     0.0725881  
C118     C      0.778080000000     0.765890000000     0.205120000000    -0.00444751 
C119     C      0.773860000000     0.756910000000     0.245380000000    -0.033872   
C120     C      0.784610000000     0.767250000000     0.280230000000    -0.0337559  
C121     C      0.799890000000     0.786790000000     0.275610000000    -0.00438682 
C122     C      0.804320000000     0.795570000000     0.235250000000    -0.0338741  
C123     C      0.793520000000     0.785270000000     0.200440000000    -0.0339714  
C124     C      0.810840000000     0.798220000000     0.312770000000     0.0499029  
C125     C      0.819130000000     0.784620000000     0.346330000000    -0.0885667  
C126     C      0.829000000000     0.795750000000     0.381220000000     0.0720723  
C127     C      0.822880000000     0.833470000000     0.350470000000     0.0724385  
C128     C      0.812880000000     0.822940000000     0.315180000000    -0.0886095  
C129     C      0.732850000000     0.305410000000     0.849370000000     0.0723007  
C130     C      0.743310000000     0.295320000000     0.814060000000    -0.0887498  
C131     C      0.765950000000     0.302550000000     0.801380000000     0.0499028  
C132     C      0.777670000000     0.319890000000     0.824940000000    -0.0886066  
C133     C      0.766620000000     0.329730000000     0.860000000000     0.0718961  
C134     C      0.777190000000     0.292020000000     0.763710000000    -0.00436966 
C135     C      0.763850000000     0.288310000000     0.727260000000    -0.0340967  
C136     C      0.774230000000     0.278020000000     0.692010000000    -0.0337658  
C137     C      0.798190000000     0.271070000000     0.692410000000    -0.00445634 
C138     C      0.811580000000     0.274960000000     0.728830000000    -0.0336915  
C139     C      0.801210000000     0.285370000000     0.764040000000    -0.034055   
C140     C      0.809070000000     0.259670000000     0.655090000000     0.0499177  
C141     C      0.796200000000     0.243360000000     0.631090000000    -0.0885849  
C142     C      0.806590000000     0.232870000000     0.596050000000     0.0723733  
C143     C      0.842270000000     0.254070000000     0.607910000000     0.0722964  
C144     C      0.832390000000     0.264950000000     0.643070000000    -0.0884984  
C145     C      0.823610000000     0.259800000000     0.367410000000     0.0725533  
C146     C      0.812400000000     0.269980000000     0.332950000000    -0.0888324  
C147     C      0.802820000000     0.255500000000     0.301670000000     0.0500166  
C148     C      0.804750000000     0.230870000000     0.306030000000    -0.0885998  
C149     C      0.816010000000     0.221270000000     0.341000000000     0.0722232  
C150     C      0.791040000000     0.266080000000     0.264620000000    -0.00444486 
C151     C      0.775840000000     0.285680000000     0.269090000000    -0.0339115  
C152     C      0.765140000000     0.295950000000     0.234190000000    -0.0338297  
C153     C      0.769420000000     0.286930000000     0.193920000000    -0.00436391 
C154     C      0.784450000000     0.267190000000     0.189500000000    -0.0337681  
C155     C      0.795110000000     0.256870000000     0.224440000000    -0.0338537  
C156     C      0.758560000000     0.298320000000     0.156660000000     0.04991    
C157     C      0.756870000000     0.323050000000     0.153870000000    -0.0886391  
C158     C      0.746920000000     0.333520000000     0.118500000000     0.0725534  
C159     C      0.740180000000     0.295720000000     0.088400000000     0.0720277  
C160     C      0.750000000000     0.284650000000     0.123370000000    -0.0884738  
C161     C      0.735790000000     0.439960000000     0.987080000000     0.0721267  
C162     C      0.737010000000     0.464710000000     0.987560000000    -0.0888674  
C163     C      0.719440000000     0.478110000000     0.967610000000     0.0500349  
C164     C      0.701340000000     0.466120000000     0.946390000000    -0.0889914  
C165     C      0.700700000000     0.441380000000     0.946440000000     0.0721584  
C166     C      0.719490000000     0.504420000000     0.970160000000    -0.00462135 
C167     C      0.740710000000     0.517340000000     0.966310000000    -0.0338787  
C168     C      0.740650000000     0.542070000000     0.969610000000    -0.034074   
C169     C      0.719380000000     0.554390000000     0.977100000000    -0.00438495 
C170     C      0.698170000000     0.541460000000     0.980750000000    -0.0340596  
C171     C      0.698220000000     0.516790000000     0.977300000000    -0.0337959  
C172     C      0.719190000000     0.580630000000     0.981210000000     0.0496738  
C173     C      0.732510000000     0.594920000000     0.954160000000    -0.0886066  
C174     C      0.731320000000     0.619600000000     0.957580000000     0.072177   
C175     C      0.704550000000     0.616340000000     0.014470000000     0.0727981  
C176     C      0.705270000000     0.591650000000     0.011860000000    -0.0886807  
C177     C      0.243420000000     0.841170000000     0.631890000000     0.0724843  
C178     C      0.253760000000     0.830680000000     0.666880000000    -0.0889257  
C179     C      0.256490000000     0.806030000000     0.668670000000     0.0500457  
C180     C      0.248270000000     0.792380000000     0.635100000000    -0.0887718  
C181     C      0.238060000000     0.803470000000     0.600490000000     0.0722468  
C182     C      0.268230000000     0.794720000000     0.705060000000    -0.00457292 
C183     C      0.288650000000     0.804940000000     0.722660000000    -0.0338681  
C184     C      0.299770000000     0.794410000000     0.756880000000    -0.0338564  
C185     C      0.290730000000     0.773440000000     0.774400000000    -0.00451644 
C186     C      0.270310000000     0.763190000000     0.756830000000    -0.034011   
C187     C      0.259220000000     0.773680000000     0.722450000000    -0.0339583  
C188     C      0.302510000000     0.762450000000     0.811060000000     0.0499223  
C189     C      0.327290000000     0.761200000000     0.813370000000    -0.0887857  
C190     C      0.338130000000     0.751400000000     0.848530000000     0.0721691  
C191     C      0.300560000000     0.743860000000     0.879160000000     0.0719765  
C192     C      0.289130000000     0.753480000000     0.844390000000    -0.0887451  
C193     C      0.331020000000     0.774770000000     0.099490000000     0.0722551  
C194     C      0.321620000000     0.786400000000     0.134310000000    -0.0887882  
C195     C      0.313270000000     0.773250000000     0.168410000000     0.050057   
C196     C      0.314780000000     0.748480000000     0.166640000000    -0.0887759  
C197     C      0.324280000000     0.737440000000     0.131350000000     0.0725489  
C198     C      0.302650000000     0.785230000000     0.205330000000    -0.0044899  
C199     C      0.287430000000     0.804760000000     0.200230000000    -0.0337599  
C200     C      0.276800000000     0.815510000000     0.234840000000    -0.0338956  
C201     C      0.281120000000     0.806990000000     0.275380000000    -0.00440546 
C202     C      0.296610000000     0.787680000000     0.280520000000    -0.0338335  
C203     C      0.307240000000     0.776940000000     0.245920000000    -0.0337791  
C204     C      0.269070000000     0.817800000000     0.312070000000     0.0499763  
C205     C      0.245160000000     0.824460000000     0.309900000000    -0.0887241  
C206     C      0.233840000000     0.833820000000     0.345020000000     0.072466   
C207     C      0.269260000000     0.830480000000     0.384390000000     0.0722089  
C208     C      0.281150000000     0.821070000000     0.349850000000    -0.0887319  
C209     C      0.446370000000     0.711830000000     0.028410000000     0.0722985  
C210     C      0.471100000000     0.712990000000     0.029580000000    -0.0886632  
C211     C      0.483280000000     0.728220000000     0.002450000000     0.0500849  
C212     C      0.470020000000     0.742500000000     0.975320000000    -0.088931   
C213     C      0.445300000000     0.740850000000     0.974930000000     0.0722246  
C214     C      0.509650000000     0.728430000000     0.001280000000    -0.0040455  
C215     C      0.522950000000     0.726560000000     0.038270000000    -0.0341682  
C216     C      0.547700000000     0.725350000000     0.036820000000    -0.033407   
C217     C      0.559750000000     0.725990000000     0.998350000000    -0.00485764 
C218     C      0.546480000000     0.728410000000     0.961460000000    -0.0337356  
C219     C      0.521740000000     0.729590000000     0.962900000000    -0.0342267  
C220     C      0.585970000000     0.723330000000     0.996560000000     0.0497727  
C221     C      0.600620000000     0.734280000000     0.026170000000    -0.088475   
C222     C      0.625180000000     0.731000000000     0.024460000000     0.0725355  
C223     C      0.621150000000     0.706480000000     0.964730000000     0.0726529  
C224     C      0.596580000000     0.709360000000     0.965530000000    -0.0888978  
C225     C      0.269650000000     0.240070000000     0.592440000000     0.0720991  
C226     C      0.280790000000     0.250410000000     0.626910000000    -0.0887504  
C227     C      0.267410000000     0.263260000000     0.656030000000     0.0500341  
C228     C      0.242880000000     0.265090000000     0.650040000000    -0.0888475  
C229     C      0.232310000000     0.254430000000     0.615420000000     0.0724859  
C230     C      0.278890000000     0.274920000000     0.692340000000    -0.00445768 
C231     C      0.296340000000     0.263080000000     0.715680000000    -0.0340456  
C232     C      0.306640000000     0.273940000000     0.750510000000    -0.0337639  
C233     C      0.299790000000     0.296920000000     0.762630000000    -0.0044671  
C234     C      0.282610000000     0.308860000000     0.738790000000    -0.0337766  
C235     C      0.272250000000     0.297980000000     0.704150000000    -0.0340398  
C236     C      0.310200000000     0.308320000000     0.800290000000     0.049921   
C237     C      0.334310000000     0.305740000000     0.809910000000    -0.0884881  
C238     C      0.343690000000     0.316740000000     0.845360000000     0.0720069  
C239     C      0.305980000000     0.332780000000     0.862080000000     0.0726031  
C240     C      0.296020000000     0.321980000000     0.827040000000    -0.0887821  
C241     C      0.339250000000     0.329830000000     0.122200000000     0.0723596  
C242     C      0.328940000000     0.319640000000     0.157590000000    -0.0887242  
C243     C      0.304960000000     0.313110000000     0.157130000000     0.0500283  
C244     C      0.291820000000     0.317190000000     0.120740000000    -0.0888803  
C245     C      0.302670000000     0.327450000000     0.085960000000     0.0723247  
C246     C      0.293750000000     0.301930000000     0.194230000000    -0.00450343 
C247     C      0.298750000000     0.310220000000     0.234690000000    -0.0338352  
C248     C      0.288280000000     0.299590000000     0.269550000000    -0.0338382  
C249     C      0.272630000000     0.280380000000     0.264760000000    -0.00450156 
C250     C      0.267600000000     0.272140000000     0.224290000000    -0.033858   
C251     C      0.278010000000     0.282800000000     0.189450000000    -0.0338508  
C252     C      0.261770000000     0.268810000000     0.301810000000     0.0500368  
C253     C      0.253320000000     0.282330000000     0.335400000000    -0.0887589  
C254     C      0.243260000000     0.271090000000     0.370040000000     0.0720068  
C255     C      0.249750000000     0.233440000000     0.339080000000     0.0723405  
C256     C      0.259840000000     0.244090000000     0.303960000000    -0.0887931  
C257     C      0.443440000000     0.334080000000     0.987210000000     0.0726555  
C258     C      0.468080000000     0.331540000000     0.989280000000    -0.0889244  
C259     C      0.482780000000     0.351140000000     0.982140000000     0.0502337  
C260     C      0.472240000000     0.372910000000     0.972340000000    -0.0891929  
C261     C      0.447590000000     0.374790000000     0.970330000000     0.0725779  
C262     C      0.508990000000     0.349050000000     0.984950000000    -0.0049467  
C263     C      0.520870000000     0.329540000000     0.967330000000    -0.0338619  
C264     C      0.545620000000     0.328120000000     0.968670000000    -0.0340615  
C265     C      0.559010000000     0.346090000000     0.987910000000    -0.00473659 
C266     C      0.547090000000     0.365350000000     0.006220000000    -0.0337237  
C267     C      0.522370000000     0.366830000000     0.004690000000    -0.0336325  
C268     C      0.585350000000     0.345250000000     0.987650000000     0.0496879  
C269     C      0.597690000000     0.338700000000     0.951450000000    -0.0887637  
C270     C      0.622440000000     0.339370000000     0.950850000000     0.0724818  
C271     C      0.623170000000     0.352180000000     0.021380000000     0.0723614  
C272     C      0.598410000000     0.351810000000     0.023010000000    -0.0886175  
C273     C      0.367690000000     0.627530000000     0.959640000000     0.0722845  
C274     C      0.365910000000     0.602880000000     0.957710000000    -0.0887083  
C275     C      0.345720000000     0.591430000000     0.973440000000     0.049979   
C276     C      0.327540000000     0.605370000000     0.990500000000    -0.0888407  
C277     C      0.329980000000     0.630000000000     0.992200000000     0.0720866  
C278     C      0.344010000000     0.565100000000     0.972960000000    -0.00466843 
C279     C      0.353110000000     0.551970000000     0.939210000000    -0.033817   
C280     C      0.352710000000     0.527220000000     0.939780000000    -0.0338201  
C281     C      0.343000000000     0.514920000000     0.973970000000    -0.00450956 
C282     C      0.333360000000     0.528050000000     0.007270000000    -0.033646   
C283     C      0.333930000000     0.552820000000     0.006840000000    -0.033454   
C284     C      0.343650000000     0.488550000000     0.975390000000     0.0496225  
C285     C      0.340400000000     0.475050000000     0.939070000000    -0.0887157  
C286     C      0.342390000000     0.450390000000     0.940600000000     0.0726795  
C287     C      0.349940000000     0.451910000000     0.013360000000     0.07271    
C288     C      0.348260000000     0.476600000000     0.012910000000    -0.0883056  
Cd1      Cd     0.358340000000     0.364240000000     0.978650000000     0.508217   
Cd2      Cd     0.359060000000     0.715590000000     0.989680000000     0.508733   
Cd3      Cd     0.710150000000     0.353470000000     0.977720000000     0.508069   
Cd4      Cd     0.709960000000     0.705360000000     0.991670000000     0.508631   
Cd5      Cd     0.860180000000     0.205670000000     0.477250000000     0.508742   
Cd6      Cd     0.859050000000     0.853740000000     0.491600000000     0.508408   
Cd7      Cd     0.208960000000     0.861580000000     0.489890000000     0.508857   
Cd8      Cd     0.212190000000     0.212890000000     0.479110000000     0.508863   
H1       H      0.249500000000     0.937120000000     0.520340000000     0.033675   
H2       H      0.252320000000     0.980040000000     0.523390000000     0.0558366  
H3       H      0.187580000000     0.985270000000     0.452270000000     0.0557599  
H4       H      0.185090000000     0.942380000000     0.450500000000     0.0331464  
H5       H      0.259000000000     0.015020000000     0.480090000000     0.0407271  
H6       H      0.260470000000     0.058210000000     0.484410000000     0.040646   
H7       H      0.184810000000     0.060010000000     0.505850000000     0.0408714  
H8       H      0.183500000000     0.016920000000     0.503130000000     0.0409579  
H9       H      0.247680000000     0.092440000000     0.444170000000     0.0559124  
H10      H      0.246270000000     0.135400000000     0.442750000000     0.0342165  
H11      H      0.197720000000     0.135560000000     0.545530000000     0.0327922  
H12      H      0.199070000000     0.092600000000     0.548400000000     0.0556308  
H13      H      0.938680000000     0.866570000000     0.432000000000     0.0329707  
H14      H      0.981620000000     0.863710000000     0.432500000000     0.0556883  
H15      H      0.977170000000     0.812510000000     0.532270000000     0.0558543  
H16      H      0.934290000000     0.816110000000     0.531380000000     0.0341186  
H17      H      0.014950000000     0.837360000000     0.418130000000     0.0407289  
H18      H      0.058120000000     0.838940000000     0.422430000000     0.0410879  
H19      H      0.053720000000     0.838070000000     0.557120000000     0.0407341  
H20      H      0.010570000000     0.837320000000     0.552840000000     0.0410513  
H21      H      0.093000000000     0.815870000000     0.442950000000     0.0558745  
H22      H      0.135710000000     0.821410000000     0.445160000000     0.0338396  
H23      H      0.128050000000     0.871290000000     0.544940000000     0.0330756  
H24      H      0.085330000000     0.866460000000     0.543190000000     0.0557571  
H25      H      0.830450000000     0.130380000000     0.535490000000     0.0335297  
H26      H      0.828710000000     0.087460000000     0.541150000000     0.0558578  
H27      H      0.873690000000     0.081630000000     0.432510000000     0.0558558  
H28      H      0.875270000000     0.124520000000     0.428070000000     0.033262   
H29      H      0.813380000000     0.052070000000     0.504890000000     0.0408848  
H30      H      0.813280000000     0.008900000000     0.511360000000     0.0408385  
H31      H      0.888340000000     0.007500000000     0.484260000000     0.0410544  
H32      H      0.888580000000     0.050570000000     0.479000000000     0.0408601  
H33      H      0.818070000000     0.973690000000     0.466720000000     0.05603    
H34      H      0.819590000000     0.930670000000     0.468050000000     0.0338446  
H35      H      0.884610000000     0.933120000000     0.536590000000     0.0329533  
H36      H      0.883490000000     0.976110000000     0.536310000000     0.0557255  
H37      H      0.935760000000     0.237020000000     0.421840000000     0.033273   
H38      H      0.978760000000     0.239740000000     0.418180000000     0.0560801  
H39      H      0.983880000000     0.194650000000     0.526530000000     0.0559988  
H40      H      0.940950000000     0.192210000000     0.529170000000     0.033057   
H41      H      0.013290000000     0.255860000000     0.458010000000     0.0410685  
H42      H      0.056630000000     0.256870000000     0.454040000000     0.0409446  
H43      H      0.058940000000     0.181420000000     0.476430000000     0.0410347  
H44      H      0.015750000000     0.180340000000     0.479560000000     0.0409665  
H45      H      0.091050000000     0.251260000000     0.501760000000     0.0561075  
H46      H      0.134140000000     0.250340000000     0.502950000000     0.0338946  
H47      H      0.134070000000     0.187860000000     0.427180000000     0.0329222  
H48      H      0.091050000000     0.188350000000     0.425140000000     0.0558062  
H49      H      0.776490000000     0.731210000000     0.902660000000     0.0332599  
H50      H      0.794140000000     0.750520000000     0.842440000000     0.0557884  
H51      H      0.724160000000     0.768110000000     0.797780000000     0.0557874  
H52      H      0.707090000000     0.748420000000     0.858140000000     0.0332777  
H53      H      0.798970000000     0.790590000000     0.813470000000     0.0409025  
H54      H      0.816850000000     0.809820000000     0.753010000000     0.04075    
H55      H      0.764240000000     0.777610000000     0.673050000000     0.0409111  
H56      H      0.746250000000     0.758550000000     0.733640000000     0.0410242  
H57      H      0.839480000000     0.799910000000     0.691700000000     0.0556577  
H58      H      0.857920000000     0.817510000000     0.630840000000     0.0341115  
H59      H      0.789710000000     0.832690000000     0.579030000000     0.0329625  
H60      H      0.770590000000     0.815680000000     0.640090000000     0.0555902  
H61      H      0.751770000000     0.701880000000     0.126770000000     0.0332812  
H62      H      0.771390000000     0.718820000000     0.187330000000     0.0558238  
H63      H      0.757750000000     0.788870000000     0.138980000000     0.0558278  
H64      H      0.738500000000     0.771350000000     0.078690000000     0.0333777  
H65      H      0.761810000000     0.742190000000     0.250080000000     0.0410706  
H66      H      0.780510000000     0.760260000000     0.310900000000     0.0409047  
H67      H      0.816320000000     0.810310000000     0.230460000000     0.0407754  
H68      H      0.797450000000     0.792350000000     0.169770000000     0.0409723  
H69      H      0.818210000000     0.765450000000     0.345590000000     0.0555773  
H70      H      0.835180000000     0.784600000000     0.406550000000     0.0329161  
H71      H      0.823980000000     0.852660000000     0.351160000000     0.033946   
H72      H      0.806420000000     0.834190000000     0.290280000000     0.0557555  
H73      H      0.715300000000     0.299290000000     0.858120000000     0.0342225  
H74      H      0.733760000000     0.281730000000     0.797070000000     0.055895   
H75      H      0.795130000000     0.326110000000     0.815990000000     0.055776   
H76      H      0.776170000000     0.343230000000     0.877250000000     0.0329268  
H77      H      0.745410000000     0.293610000000     0.725810000000     0.0411788  
H78      H      0.763510000000     0.275730000000     0.664270000000     0.0407554  
H79      H      0.829980000000     0.269520000000     0.730460000000     0.0407949  
H80      H      0.811870000000     0.287740000000     0.791840000000     0.041074   
H81      H      0.778260000000     0.238430000000     0.639550000000     0.0555562  
H82      H      0.796030000000     0.220320000000     0.578400000000     0.0335872  
H83      H      0.860330000000     0.258700000000     0.599590000000     0.0333498  
H84      H      0.842900000000     0.277680000000     0.660330000000     0.0556148  
H85      H      0.830880000000     0.271640000000     0.390810000000     0.0333099  
H86      H      0.811570000000     0.289110000000     0.330580000000     0.0558904  
H87      H      0.797360000000     0.219020000000     0.282810000000     0.0558001  
H88      H      0.817080000000     0.202130000000     0.343270000000     0.0333075  
H89      H      0.772020000000     0.292950000000     0.299690000000     0.0409407  
H90      H      0.753330000000     0.310870000000     0.238820000000     0.0408389  
H91      H      0.788420000000     0.260010000000     0.158910000000     0.0409523  
H92      H      0.806970000000     0.241990000000     0.219870000000     0.041144   
H93      H      0.763550000000     0.334340000000     0.178550000000     0.0558067  
H94      H      0.746090000000     0.352720000000     0.117530000000     0.0339921  
H95      H      0.733760000000     0.284520000000     0.063310000000     0.0329911  
H96      H      0.750660000000     0.265470000000     0.124400000000     0.0556051  
H97      H      0.749460000000     0.430230000000     0.003580000000     0.0342597  
H98      H      0.751230000000     0.473250000000     0.004570000000     0.0562693  
H99      H      0.687640000000     0.475780000000     0.929920000000     0.0557014  
H100     H      0.686220000000     0.432810000000     0.930090000000     0.0328031  
H101     H      0.757360000000     0.508340000000     0.960490000000     0.040778   
H102     H      0.757300000000     0.551510000000     0.966920000000     0.040941   
H103     H      0.681450000000     0.550420000000     0.986010000000     0.0409614  
H104     H      0.681610000000     0.507370000000     0.980900000000     0.0409175  
H105     H      0.743370000000     0.587140000000     0.929840000000     0.0558907  
H106     H      0.741620000000     0.630060000000     0.935700000000     0.0332522  
H107     H      0.693430000000     0.624140000000     0.038470000000     0.0333413  
H108     H      0.695010000000     0.581280000000     0.033870000000     0.0559179  
H109     H      0.241780000000     0.860320000000     0.631670000000     0.0339528  
H110     H      0.259510000000     0.841860000000     0.692440000000     0.0560006  
H111     H      0.250190000000     0.773280000000     0.635080000000     0.0558327  
H112     H      0.232210000000     0.792340000000     0.574890000000     0.0330169  
H113     H      0.296200000000     0.820990000000     0.709710000000     0.0411889  
H114     H      0.315320000000     0.802890000000     0.769950000000     0.0411174  
H115     H      0.263020000000     0.746930000000     0.769400000000     0.040824   
H116     H      0.243420000000     0.765480000000     0.709790000000     0.0407763  
H117     H      0.338300000000     0.767620000000     0.788040000000     0.0559031  
H118     H      0.357350000000     0.750820000000     0.849120000000     0.0339212  
H119     H      0.289590000000     0.737310000000     0.904490000000     0.0331866  
H120     H      0.269940000000     0.754300000000     0.844070000000     0.0558196  
H121     H      0.337250000000     0.785580000000     0.073730000000     0.0329968  
H122     H      0.321090000000     0.805590000000     0.134570000000     0.0557467  
H123     H      0.308250000000     0.737600000000     0.192020000000     0.0560085  
H124     H      0.324960000000     0.718230000000     0.131120000000     0.0338533  
H125     H      0.283330000000     0.811470000000     0.169390000000     0.04093    
H126     H      0.265170000000     0.830520000000     0.229810000000     0.0407608  
H127     H      0.300150000000     0.780530000000     0.311260000000     0.0409948  
H128     H      0.319100000000     0.762110000000     0.251000000000     0.0407778  
H129     H      0.235040000000     0.821990000000     0.281500000000     0.0559053  
H130     H      0.215260000000     0.838510000000     0.342130000000     0.0337767  
H131     H      0.279200000000     0.832610000000     0.413120000000     0.03312    
H132     H      0.299730000000     0.816480000000     0.352760000000     0.055696   
H133     H      0.437660000000     0.699500000000     0.049390000000     0.0332749  
H134     H      0.480590000000     0.701450000000     0.050780000000     0.0557014  
H135     H      0.478670000000     0.754820000000     0.954320000000     0.0557669  
H136     H      0.435720000000     0.751980000000     0.953090000000     0.0339575  
H137     H      0.514210000000     0.725910000000     0.068390000000     0.0406642  
H138     H      0.557350000000     0.723310000000     0.065810000000     0.0407339  
H139     H      0.555200000000     0.729270000000     0.931350000000     0.0407458  
H140     H      0.512080000000     0.730790000000     0.933770000000     0.0410469  
H141     H      0.593210000000     0.745460000000     0.050390000000     0.0557541  
H142     H      0.635900000000     0.739730000000     0.047960000000     0.0331685  
H143     H      0.628590000000     0.695370000000     0.940370000000     0.0333186  
H144     H      0.585940000000     0.700260000000     0.942380000000     0.0556855  
H145     H      0.280630000000     0.230470000000     0.570350000000     0.0328436  
H146     H      0.299830000000     0.248720000000     0.630260000000     0.0557845  
H147     H      0.231830000000     0.274570000000     0.672150000000     0.0559997  
H148     H      0.213270000000     0.256320000000     0.611920000000     0.0342075  
H149     H      0.301660000000     0.245210000000     0.707590000000     0.0409817  
H150     H      0.319600000000     0.264110000000     0.768450000000     0.0407039  
H151     H      0.277260000000     0.326750000000     0.746680000000     0.0408697  
H152     H      0.259170000000     0.307730000000     0.686340000000     0.0412599  
H153     H      0.345990000000     0.295570000000     0.789880000000     0.0554885  
H154     H      0.362440000000     0.314410000000     0.851630000000     0.0329325  
H155     H      0.294350000000     0.343180000000     0.881920000000     0.033982   
H156     H      0.277220000000     0.324140000000     0.821310000000     0.0556806  
H157     H      0.357880000000     0.334500000000     0.123710000000     0.0333763  
H158     H      0.339820000000     0.316550000000     0.184900000000     0.0559092  
H159     H      0.273160000000     0.312710000000     0.119210000000     0.0558924  
H160     H      0.291860000000     0.330320000000     0.058440000000     0.0334224  
H161     H      0.310620000000     0.325080000000     0.239410000000     0.0409239  
H162     H      0.292700000000     0.306220000000     0.300320000000     0.0409836  
H163     H      0.255440000000     0.257530000000     0.219500000000     0.0409504  
H164     H      0.273970000000     0.275840000000     0.158750000000     0.040984   
H165     H      0.254210000000     0.301500000000     0.334800000000     0.055843   
H166     H      0.236890000000     0.282160000000     0.395370000000     0.0329996  
H167     H      0.248700000000     0.214250000000     0.339590000000     0.0341222  
H168     H      0.266420000000     0.232950000000     0.278940000000     0.0560251  
H169     H      0.432630000000     0.318570000000     0.993390000000     0.0334812  
H170     H      0.475520000000     0.314420000000     0.997190000000     0.0559182  
H171     H      0.482960000000     0.388420000000     0.965920000000     0.0558584  
H172     H      0.440160000000     0.391990000000     0.962760000000     0.0330756  
H173     H      0.511060000000     0.315630000000     0.951690000000     0.0408545  
H174     H      0.554280000000     0.312950000000     0.954600000000     0.0408689  
H175     H      0.556880000000     0.379590000000     0.020930000000     0.0409889  
H176     H      0.513730000000     0.381940000000     0.019000000000     0.0410627  
H177     H      0.588290000000     0.333720000000     0.923300000000     0.0559368  
H178     H      0.631290000000     0.334540000000     0.921990000000     0.0340736  
H179     H      0.632630000000     0.357570000000     0.049270000000     0.0327769  
H180     H      0.589560000000     0.356700000000     0.051810000000     0.0557325  
H181     H      0.383720000000     0.635620000000     0.947510000000     0.0330878  
H182     H      0.380590000000     0.592880000000     0.944820000000     0.0555102  
H183     H      0.311440000000     0.597360000000     0.002410000000     0.0558779  
H184     H      0.315590000000     0.640140000000     0.005910000000     0.033951   
H185     H      0.360690000000     0.560810000000     0.912310000000     0.0404439  
H186     H      0.360530000000     0.517750000000     0.913770000000     0.0406782  
H187     H      0.325430000000     0.519210000000     0.033850000000     0.0405861  
H188     H      0.326950000000     0.562300000000     0.033570000000     0.0408117  
H189     H      0.336340000000     0.483430000000     0.909520000000     0.0555482  
H190     H      0.340000000000     0.440640000000     0.911710000000     0.0331855  
H191     H      0.353850000000     0.443400000000     0.042910000000     0.0330701  
H192     H      0.351210000000     0.486250000000     0.041680000000     0.0555745  
N1       N      0.216990000000     0.936670000000     0.485570000000    -0.180213   
N2       N      0.221630000000     0.138550000000     0.493600000000    -0.179946   
N3       N      0.933410000000     0.841810000000     0.482010000000    -0.179819   
N4       N      0.134930000000     0.846900000000     0.494920000000    -0.18003    
N5       N      0.853130000000     0.130540000000     0.481610000000    -0.179999   
N6       N      0.852340000000     0.928810000000     0.501930000000    -0.180077   
N7       N      0.935270000000     0.214280000000     0.475530000000    -0.180495   
N8       N      0.137190000000     0.218890000000     0.465610000000    -0.180147   
N9       N      0.740540000000     0.738440000000     0.884770000000    -0.18027    
N10      N      0.825160000000     0.826280000000     0.600480000000    -0.180041   
N11      N      0.743750000000     0.735370000000     0.098370000000    -0.180259   
N12      N      0.830770000000     0.819990000000     0.383290000000    -0.180287   
N13      N      0.744370000000     0.322560000000     0.872020000000    -0.179985   
N14      N      0.829440000000     0.238190000000     0.584580000000    -0.180028   
N15      N      0.825400000000     0.235650000000     0.371370000000    -0.180406   
N16      N      0.738730000000     0.319970000000     0.085980000000    -0.180178   
N17      N      0.717560000000     0.428440000000     0.967250000000    -0.18003    
N18      N      0.717250000000     0.630190000000     0.987230000000    -0.180314   
N19      N      0.235880000000     0.827680000000     0.598790000000    -0.180065   
N20      N      0.324860000000     0.742970000000     0.881270000000    -0.180005   
N21      N      0.332210000000     0.750490000000     0.097990000000    -0.180353   
N22      N      0.245740000000     0.836600000000     0.382040000000    -0.180274   
N23      N      0.433620000000     0.725360000000     0.000790000000    -0.179469   
N24      N      0.635320000000     0.717110000000     0.994090000000    -0.18044    
N25      N      0.245620000000     0.242190000000     0.586690000000    -0.180095   
N26      N      0.329620000000     0.330210000000     0.871120000000    -0.180003   
N27      N      0.326200000000     0.333640000000     0.086670000000    -0.180416   
N28      N      0.241560000000     0.246840000000     0.371850000000    -0.180276   
N29      N      0.433310000000     0.355580000000     0.978060000000    -0.179959   
N30      N      0.635050000000     0.346350000000     0.985370000000    -0.18011    
N31      N      0.349980000000     0.640940000000     0.977180000000    -0.180183   
N32      N      0.347380000000     0.438960000000     0.977360000000    -0.180708   
O1       O      0.395260000000     0.340950000000     0.985520000000    -0.245133   
O2       O      0.349500000000     0.402510000000     0.944960000000    -0.249932   
O3       O      0.358250000000     0.349360000000     0.051360000000    -0.249241   
O4       O      0.360650000000     0.338830000000     0.915630000000    -0.250612   
O5       O      0.326590000000     0.353970000000     0.929430000000    -0.245982   
O6       O      0.325100000000     0.347280000000     0.018860000000    -0.250689   
O7       O      0.399320000000     0.377700000000     0.969090000000    -0.251839   
O8       O      0.354490000000     0.403650000000     0.011400000000    -0.251738   
O9       O      0.342370000000     0.716970000000     0.060800000000    -0.248269   
O10      O      0.358180000000     0.732880000000     0.919000000000    -0.246124   
O11      O      0.337190000000     0.677920000000     0.998300000000    -0.246648   
O12      O      0.398200000000     0.708430000000     0.021100000000    -0.249861   
O13      O      0.397240000000     0.734330000000     0.971910000000    -0.244134   
O14      O      0.370610000000     0.675680000000     0.966320000000    -0.251909   
O15      O      0.348230000000     0.750720000000     0.031640000000    -0.25341    
O16      O      0.324210000000     0.726370000000     0.947100000000    -0.251895   
O17      O      0.713260000000     0.325980000000     0.918380000000    -0.245548   
O18      O      0.727700000000     0.352910000000     0.048120000000    -0.247054   
O19      O      0.670660000000     0.343720000000     0.950220000000    -0.244302   
O20      O      0.698800000000     0.393110000000     0.952350000000    -0.253075   
O21      O      0.730490000000     0.391720000000     0.989360000000    -0.244921   
O22      O      0.671580000000     0.354540000000     0.014540000000    -0.251686   
O23      O      0.743310000000     0.348760000000     0.927450000000    -0.252505   
O24      O      0.721920000000     0.318790000000     0.020300000000    -0.25314    
O25      O      0.743340000000     0.717790000000     0.946770000000    -0.249224   
O26      O      0.723920000000     0.738390000000     0.035640000000    -0.249655   
O27      O      0.726420000000     0.667840000000     0.963990000000    -0.249908   
O28      O      0.669210000000     0.700850000000     0.965710000000    -0.249082   
O29      O      0.673060000000     0.722800000000     0.020120000000    -0.249633   
O30      O      0.702380000000     0.664660000000     0.015770000000    -0.249404   
O31      O      0.708540000000     0.726970000000     0.924880000000    -0.250342   
O32      O      0.731060000000     0.703470000000     0.059150000000    -0.250591   
O33      O      0.827860000000     0.213390000000     0.527340000000    -0.247755   
O34      O      0.845650000000     0.238690000000     0.433680000000    -0.251166   
O35      O      0.844840000000     0.168110000000     0.506170000000    -0.247081   
O36      O      0.900600000000     0.199920000000     0.504190000000    -0.251033   
O37      O      0.897870000000     0.221560000000     0.449240000000    -0.250194   
O38      O      0.867010000000     0.165070000000     0.451780000000    -0.248904   
O39      O      0.860530000000     0.231840000000     0.538990000000    -0.250192   
O40      O      0.838340000000     0.203800000000     0.410380000000    -0.251066   
O41      O      0.896540000000     0.834100000000     0.510090000000    -0.243979   
O42      O      0.838700000000     0.892090000000     0.481110000000    -0.246421   
O43      O      0.858190000000     0.836280000000     0.561890000000    -0.245999   
O44      O      0.847180000000     0.818960000000     0.449280000000    -0.253269   
O45      O      0.842060000000     0.852990000000     0.420800000000    -0.248158   
O46      O      0.824100000000     0.843500000000     0.535080000000    -0.251962   
O47      O      0.898630000000     0.859410000000     0.460090000000    -0.250394   
O48      O      0.871170000000     0.893400000000     0.515930000000    -0.252049   
O49      O      0.172560000000     0.840530000000     0.468830000000    -0.246477   
O50      O      0.229870000000     0.899260000000     0.503740000000    -0.247194   
O51      O      0.212370000000     0.850640000000     0.415610000000    -0.247906   
O52      O      0.220010000000     0.826690000000     0.532370000000    -0.251157   
O53      O      0.224740000000     0.860720000000     0.561320000000    -0.247243   
O54      O      0.244310000000     0.847410000000     0.451510000000    -0.251693   
O55      O      0.168620000000     0.865810000000     0.518560000000    -0.251004   
O56      O      0.197420000000     0.902020000000     0.469140000000    -0.251344   
O57      O      0.230300000000     0.174360000000     0.462420000000    -0.244053   
O58      O      0.173260000000     0.232100000000     0.490420000000    -0.245582   
O59      O      0.230330000000     0.213740000000     0.409090000000    -0.246578   
O60      O      0.246640000000     0.221570000000     0.524410000000    -0.253105   
O61      O      0.212820000000     0.233940000000     0.546310000000    -0.246431   
O62      O      0.224180000000     0.247720000000     0.437130000000    -0.25345    
O63      O      0.205700000000     0.174450000000     0.513800000000    -0.251718   
O64      O      0.173180000000     0.201280000000     0.451140000000    -0.252741   


