data_structure

_audit_creation_method RASPA-1.0
_audit_creation_date 2023-6-5
_audit_author_name 'Poobodin Mano'

_cell_length_a    57.103
_cell_length_b    56.7763
_cell_length_c    31.567
_cell_angle_alpha 90.0308
_cell_angle_beta  89.9104
_cell_angle_gamma 90
_cell_volume      102343

_symmetry_cell_setting          triclinic
_symmetry_space_group_name_Hall 'P 1'
_symmetry_space_group_name_H-M  'P 1'
_symmetry_Int_Tables_number     1

_symmetry_equiv_pos_as_xyz 'x,y,z'

loop_
_atom_site_label
_atom_site_type_symbol
_atom_site_fract_x
_atom_site_fract_y
_atom_site_fract_z
_atom_site_charge
C1       C      0.382300000000     0.328210000000     0.968250000000     0.348006   
C2       C      0.305890000000     0.317440000000     0.044340000000     0.346915   
C3       C      0.327180000000     0.386090000000     0.980600000000     0.346094   
C4       C      0.315820000000     0.311930000000     0.897610000000     0.347412   
C5       C      0.324380000000     0.634950000000     0.969790000000     0.345892   
C6       C      0.307330000000     0.703450000000     0.048570000000     0.348834   
C7       C      0.380450000000     0.692430000000     0.979550000000     0.34936    
C8       C      0.309730000000     0.707450000000     0.899430000000     0.348296   
C9       C      0.629220000000     0.323030000000     0.978640000000     0.346455   
C10      C      0.702470000000     0.309850000000     0.906200000000     0.347568   
C11      C      0.679870000000     0.383160000000     0.971140000000     0.346264   
C12      C      0.702470000000     0.308470000000     0.045940000000     0.348726   
C13      C      0.682190000000     0.632550000000     0.971070000000     0.344835   
C14      C      0.698600000000     0.704030000000     0.893290000000     0.34787    
C15      C      0.627900000000     0.688170000000     0.970560000000     0.346685   
C16      C      0.705230000000     0.705210000000     0.036050000000     0.346034   
C17      C      0.813030000000     0.206940000000     0.549670000000     0.344931   
C18      C      0.831950000000     0.133980000000     0.478640000000     0.346104   
C19      C      0.810910000000     0.205960000000     0.404090000000     0.349701   
C20      C      0.884330000000     0.189290000000     0.475980000000     0.353461   
C21      C      0.879210000000     0.828430000000     0.464640000000     0.349643   
C22      C      0.805320000000     0.814170000000     0.540580000000     0.346828   
C23      C      0.822480000000     0.885520000000     0.474160000000     0.346318   
C24      C      0.809510000000     0.812430000000     0.394490000000     0.345849   
C25      C      0.199320000000     0.813180000000     0.401070000000     0.351554   
C26      C      0.126850000000     0.830180000000     0.469490000000     0.347448   
C27      C      0.200430000000     0.812410000000     0.543800000000     0.347645   
C28      C      0.181810000000     0.886040000000     0.472450000000     0.346852   
C29      C      0.200300000000     0.210640000000     0.400700000000     0.348366   
C30      C      0.188150000000     0.135160000000     0.477160000000     0.345839   
C31      C      0.209720000000     0.207430000000     0.540340000000     0.348158   
C32      C      0.131870000000     0.191170000000     0.474490000000     0.346834   
C33      C      0.193110000000     0.947160000000     0.437410000000    -0.0551859  
C34      C      0.185070000000     0.098810000000     0.514310000000     0.0734327  
C35      C      0.196260000000     0.099070000000     0.441950000000     0.0739005  
C36      C      0.185700000000     0.074200000000     0.514900000000    -0.087876   
C37      C      0.199390000000     0.022280000000     0.511570000000    -0.0315393  
C38      C      0.198560000000     0.997650000000     0.510720000000    -0.0350288  
C39      C      0.190950000000     0.035530000000     0.477200000000    -0.00437313 
C40      C      0.197070000000     0.074510000000     0.441420000000    -0.088084   
C41      C      0.189280000000     0.985740000000     0.475470000000     0.00195762 
C42      C      0.180620000000     0.946960000000     0.510050000000    -0.0797431  
C43      C      0.180820000000     0.999010000000     0.441170000000    -0.0350979  
C44      C      0.178420000000     0.922520000000     0.507960000000     0.0693113  
C45      C      0.190280000000     0.922610000000     0.435630000000     0.0278871  
C46      C      0.181640000000     0.023580000000     0.442020000000    -0.0312384  
C47      C      0.191460000000     0.061720000000     0.478010000000     0.0513936  
C48      C      0.188010000000     0.959590000000     0.474540000000     0.0397846  
C49      C      0.192950000000     0.911670000000     0.393180000000     0.291774   
C50      C      0.940040000000     0.812570000000     0.493260000000    -0.0550993  
C51      C      0.091160000000     0.836810000000     0.432860000000     0.0744598  
C52      C      0.090680000000     0.817710000000     0.499650000000     0.0742352  
C53      C      0.066800000000     0.835530000000     0.430470000000    -0.0881341  
C54      C      0.015370000000     0.844390000000     0.449120000000    -0.0316073  
C55      C      0.990930000000     0.844020000000     0.448360000000    -0.0348018  
C56      C      0.028060000000     0.824440000000     0.461970000000    -0.00437443 
C57      C      0.066270000000     0.815980000000     0.498140000000    -0.0877358  
C58      C      0.978530000000     0.823630000000     0.460150000000     0.00203115 
C59      C      0.939790000000     0.835790000000     0.429740000000    -0.0797925  
C60      C      0.991270000000     0.803580000000     0.472650000000    -0.0350074  
C61      C      0.915460000000     0.837070000000     0.432270000000     0.0695729  
C62      C      0.915500000000     0.814330000000     0.495590000000     0.0276399  
C63      C      0.015750000000     0.804020000000     0.473700000000    -0.0310063  
C64      C      0.054030000000     0.825150000000     0.463430000000     0.051789   
C65      C      0.952450000000     0.823640000000     0.460610000000     0.0398811  
C66      C      0.904370000000     0.804880000000     0.534580000000     0.2938     
C67      C      0.846840000000     0.071350000000     0.462300000000    -0.0557301  
C68      C      0.812630000000     0.922230000000     0.442510000000     0.0734946  
C69      C      0.827870000000     0.921160000000     0.512340000000     0.0736046  
C70      C      0.812130000000     0.946840000000     0.443510000000    -0.0884843  
C71      C      0.802680000000     0.998720000000     0.465850000000    -0.0316445  
C72      C      0.804260000000     0.023310000000     0.465980000000    -0.0352474  
C73      C      0.821560000000     0.984910000000     0.479910000000    -0.00490429 
C74      C      0.827860000000     0.945710000000     0.514230000000    -0.0888258  
C75      C      0.824890000000     0.034490000000     0.479560000000     0.00167265 
C76      C      0.809390000000     0.074610000000     0.496590000000    -0.0801368  
C77      C      0.843730000000     0.020670000000     0.493600000000    -0.0352895  
C78      C      0.811990000000     0.099040000000     0.497100000000     0.0695704  
C79      C      0.849260000000     0.095950000000     0.463520000000     0.0280048  
C80      C      0.842040000000     0.996140000000     0.493960000000    -0.0312569  
C81      C      0.820200000000     0.958840000000     0.479390000000     0.0516415  
C82      C      0.826900000000     0.060520000000     0.479010000000     0.0399821  
C83      C      0.872360000000     0.105510000000     0.450290000000     0.29219    
C84      C      0.945710000000     0.191550000000     0.439050000000    -0.0560845  
C85      C      0.096380000000     0.195760000000     0.513060000000     0.0735349  
C86      C      0.095430000000     0.192520000000     0.438190000000     0.0734708  
C87      C      0.071990000000     0.197210000000     0.514550000000    -0.0884453  
C88      C      0.020560000000     0.184200000000     0.509470000000    -0.0313371  
C89      C      0.996100000000     0.183980000000     0.509690000000    -0.0350453  
C90      C      0.032930000000     0.196690000000     0.478160000000    -0.00459926 
C91      C      0.071000000000     0.193910000000     0.438520000000    -0.0882751  
C92      C      0.983410000000     0.196220000000     0.478570000000     0.00194071 
C93      C      0.944260000000     0.195640000000     0.514730000000    -0.0798109  
C94      C      0.995770000000     0.209010000000     0.447630000000    -0.0353111  
C95      C      0.919970000000     0.193320000000     0.513120000000     0.072404   
C96      C      0.921280000000     0.188660000000     0.438190000000     0.0307767  
C97      C      0.020240000000     0.209250000000     0.447430000000    -0.0309645  
C98      C      0.058960000000     0.196120000000     0.477040000000     0.0515578  
C99      C      0.957430000000     0.194880000000     0.477440000000     0.0408765  
C100     C      0.910960000000     0.181210000000     0.397130000000     0.292854   
C101     C      0.734490000000     0.713240000000     0.797230000000    -0.0556842  
C102     C      0.804080000000     0.805780000000     0.614310000000     0.0744951  
C103     C      0.773620000000     0.792260000000     0.569460000000     0.0740014  
C104     C      0.793280000000     0.795410000000     0.649370000000    -0.088364   
C105     C      0.759080000000     0.782910000000     0.720240000000    -0.0314084  
C106     C      0.748590000000     0.771750000000     0.754880000000    -0.0347692  
C107     C      0.760910000000     0.771310000000     0.681020000000    -0.00449376 
C108     C      0.762440000000     0.781540000000     0.603780000000    -0.0885472  
C109     C      0.739910000000     0.748690000000     0.751100000000     0.00190114 
C110     C      0.712700000000     0.748320000000     0.813350000000    -0.0801023  
C111     C      0.741700000000     0.737120000000     0.711850000000    -0.0348077  
C112     C      0.702370000000     0.736640000000     0.847440000000     0.0701429  
C113     C      0.723610000000     0.701660000000     0.831290000000     0.0297633  
C114     C      0.752020000000     0.748330000000     0.677160000000    -0.0309699  
C115     C      0.772290000000     0.782990000000     0.644310000000     0.052043   
C116     C      0.729040000000     0.736680000000     0.787950000000     0.0405665  
C117     C      0.728090000000     0.675960000000     0.834890000000     0.291308   
C118     C      0.747870000000     0.715780000000     0.122100000000    -0.0551102  
C119     C      0.780200000000     0.810850000000     0.341190000000     0.0737762  
C120     C      0.810070000000     0.781860000000     0.342850000000     0.0735325  
C121     C      0.770090000000     0.800130000000     0.305850000000    -0.0882402  
C122     C      0.745040000000     0.766100000000     0.247400000000    -0.0316507  
C123     C      0.734980000000     0.755570000000     0.211790000000    -0.0349893  
C124     C      0.769500000000     0.768130000000     0.250980000000    -0.00430874 
C125     C      0.800430000000     0.770690000000     0.307450000000    -0.0878433  
C126     C      0.749120000000     0.746790000000     0.178880000000     0.00205142 
C127     C      0.718650000000     0.746180000000     0.121890000000    -0.0797162  
C128     C      0.773590000000     0.748650000000     0.182590000000    -0.0349402  
C129     C      0.708600000000     0.735880000000     0.086190000000     0.0692603  
C130     C      0.737780000000     0.705950000000     0.085520000000     0.028063   
C131     C      0.783670000000     0.759190000000     0.218230000000    -0.0311786  
C132     C      0.780150000000     0.779770000000     0.288550000000     0.0513509  
C133     C      0.738330000000     0.736000000000     0.140650000000     0.0397879  
C134     C      0.750960000000     0.686450000000     0.065110000000     0.291306   
C135     C      0.714610000000     0.271600000000     0.814040000000    -0.0551599  
C136     C      0.813690000000     0.235840000000     0.604290000000     0.0736311  
C137     C      0.781420000000     0.209750000000     0.598430000000     0.0737187  
C138     C      0.803310000000     0.246870000000     0.639180000000    -0.0880877  
C139     C      0.783120000000     0.257050000000     0.726760000000    -0.0311621  
C140     C      0.772170000000     0.267110000000     0.762040000000    -0.0348499  
C141     C      0.770000000000     0.250710000000     0.690870000000    -0.00439671 
C142     C      0.770540000000     0.220390000000     0.633110000000    -0.0881558  
C143     C      0.747860000000     0.271090000000     0.762190000000     0.00242417 
C144     C      0.746220000000     0.298940000000     0.823900000000    -0.0791039  
C145     C      0.734830000000     0.265110000000     0.726010000000    -0.0350506  
C146     C      0.734860000000     0.307720000000     0.859720000000     0.0714387  
C147     C      0.703690000000     0.280320000000     0.850750000000     0.0299169  
C148     C      0.745760000000     0.255040000000     0.690780000000    -0.0307237  
C149     C      0.781430000000     0.239230000000     0.653910000000     0.0517078  
C150     C      0.736000000000     0.280860000000     0.800300000000     0.0407602  
C151     C      0.682890000000     0.267120000000     0.866170000000     0.297285   
C152     C      0.719240000000     0.264030000000     0.125790000000    -0.0556124  
C153     C      0.804110000000     0.239030000000     0.359600000000     0.0746548  
C154     C      0.785160000000     0.202720000000     0.345290000000     0.0745256  
C155     C      0.793370000000     0.249360000000     0.324520000000    -0.0879182  
C156     C      0.758050000000     0.269740000000     0.262640000000    -0.0312856  
C157     C      0.747480000000     0.279680000000     0.226960000000    -0.0347915  
C158     C      0.766900000000     0.246640000000     0.261300000000    -0.00419757 
C159     C      0.774140000000     0.212490000000     0.309980000000    -0.0881228  
C160     C      0.745510000000     0.266730000000     0.189170000000     0.00215884 
C161     C      0.739270000000     0.300450000000     0.139340000000    -0.0797685  
C162     C      0.754380000000     0.243650000000     0.187830000000    -0.034715   
C163     C      0.728870000000     0.310020000000     0.103330000000     0.0701909  
C164     C      0.709360000000     0.273820000000     0.089090000000     0.0294968  
C165     C      0.764950000000     0.233720000000     0.223470000000    -0.0308048  
C166     C      0.778230000000     0.236060000000     0.299120000000     0.0521092  
C167     C      0.734360000000     0.277280000000     0.151170000000     0.0404592  
C168     C      0.696270000000     0.257360000000     0.061220000000     0.290688   
C169     C      0.684020000000     0.444330000000     0.931240000000    -0.0548851  
C170     C      0.680580000000     0.596190000000     0.008480000000     0.0744702  
C171     C      0.687480000000     0.596400000000     0.934380000000     0.0744252  
C172     C      0.681240000000     0.571580000000     0.008970000000    -0.0874554  
C173     C      0.696340000000     0.520010000000     0.002050000000    -0.0312946  
C174     C      0.696030000000     0.495380000000     0.001440000000    -0.0344941  
C175     C      0.684630000000     0.532960000000     0.970630000000    -0.00440373 
C176     C      0.688090000000     0.571840000000     0.933680000000    -0.087346   
C177     C      0.683870000000     0.483150000000     0.969520000000     0.00188785 
C178     C      0.680390000000     0.444380000000     0.006990000000    -0.079311   
C179     C      0.672120000000     0.496170000000     0.938180000000    -0.0347858  
C180     C      0.679000000000     0.419880000000     0.006230000000     0.0694731  
C181     C      0.681910000000     0.419660000000     0.931030000000     0.0278457  
C182     C      0.672560000000     0.520760000000     0.938660000000    -0.0312504  
C183     C      0.684800000000     0.559110000000     0.971190000000     0.0514053  
C184     C      0.683040000000     0.456940000000     0.969290000000     0.0396681  
C185     C      0.680070000000     0.408380000000     0.888760000000     0.291461   
C186     C      0.223450000000     0.767030000000     0.616720000000    -0.0551291  
C187     C      0.298110000000     0.741840000000     0.861900000000     0.0747785  
C188     C      0.290700000000     0.704080000000     0.832790000000     0.0746207  
C189     C      0.287560000000     0.752620000000     0.827000000000    -0.0876199  
C190     C      0.252230000000     0.769600000000     0.761760000000    -0.0313031  
C191     C      0.241310000000     0.779800000000     0.726630000000    -0.0347837  
C192     C      0.266920000000     0.749890000000     0.756860000000    -0.0040913  
C193     C      0.280040000000     0.714250000000     0.797480000000    -0.0878142  
C194     C      0.244790000000     0.770500000000     0.685830000000     0.00212747 
C195     C      0.232160000000     0.805620000000     0.643520000000    -0.0794832  
C196     C      0.259580000000     0.750890000000     0.680920000000    -0.0348495  
C197     C      0.221610000000     0.815370000000     0.607780000000     0.0695022  
C198     C      0.213340000000     0.777170000000     0.580510000000     0.0279244  
C199     C      0.270520000000     0.740720000000     0.715980000000    -0.031052   
C200     C      0.278320000000     0.738810000000     0.794220000000     0.0518387  
C201     C      0.233110000000     0.781210000000     0.648440000000     0.0399137  
C202     C      0.206610000000     0.760610000000     0.546210000000     0.292002   
C203     C      0.262560000000     0.718630000000     0.128710000000    -0.0554689  
C204     C      0.232550000000     0.807670000000     0.356650000000     0.0767843  
C205     C      0.197430000000     0.786790000000     0.342720000000     0.0768136  
C206     C      0.243450000000     0.796920000000     0.322030000000    -0.0876792  
C207     C      0.257240000000     0.781580000000     0.233120000000    -0.0310393  
C208     C      0.267820000000     0.770480000000     0.198490000000    -0.034764   
C209     C      0.242410000000     0.768920000000     0.260440000000    -0.0041243  
C210     C      0.207780000000     0.775720000000     0.307920000000    -0.0878529  
C211     C      0.263780000000     0.746480000000     0.190390000000     0.00230526 
C212     C      0.298520000000     0.738850000000     0.143860000000    -0.0793315  
C213     C      0.249000000000     0.733800000000     0.217770000000    -0.0348281  
C214     C      0.308900000000     0.727540000000     0.109430000000     0.0701377  
C215     C      0.273480000000     0.707010000000     0.094700000000     0.028743   
C216     C      0.238440000000     0.744890000000     0.252380000000    -0.0307244  
C217     C      0.231080000000     0.780690000000     0.297210000000     0.0528257  
C218     C      0.275040000000     0.734650000000     0.153630000000     0.040231   
C219     C      0.259780000000     0.687980000000     0.074030000000     0.290548   
C220     C      0.440870000000     0.714150000000     0.963660000000    -0.0555884  
C221     C      0.591040000000     0.682190000000     0.937460000000     0.0734659  
C222     C      0.592770000000     0.699520000000     0.005760000000     0.0737097  
C223     C      0.566620000000     0.683320000000     0.937960000000    -0.0883839  
C224     C      0.515840000000     0.673840000000     0.962050000000    -0.0316928  
C225     C      0.491400000000     0.674370000000     0.963670000000    -0.0351468  
C226     C      0.529020000000     0.693570000000     0.974490000000    -0.00476765 
C227     C      0.568350000000     0.701140000000     0.007130000000    -0.0880569  
C228     C      0.479590000000     0.694710000000     0.977380000000     0.0017779  
C229     C      0.441450000000     0.676310000000     0.997590000000    -0.080678   
C230     C      0.492740000000     0.714520000000     0.989520000000    -0.0355933  
C231     C      0.417070000000     0.676560000000     0.998740000000     0.0695613  
C232     C      0.416250000000     0.714200000000     0.965570000000     0.0281669  
C233     C      0.517220000000     0.713900000000     0.988330000000    -0.0311553  
C234     C      0.554980000000     0.692800000000     0.973110000000     0.0511808  
C235     C      0.453630000000     0.695050000000     0.979390000000     0.0399377  
C236     C      0.404370000000     0.736390000000     0.952990000000     0.290681   
C237     C      0.258230000000     0.225990000000     0.610330000000    -0.0554824  
C238     C      0.303340000000     0.276970000000     0.862830000000     0.0754595  
C239     C      0.303290000000     0.313330000000     0.825870000000     0.0745023  
C240     C      0.294230000000     0.265440000000     0.827410000000    -0.0878743  
C241     C      0.260100000000     0.250860000000     0.757920000000    -0.0314386  
C242     C      0.249440000000     0.240660000000     0.722590000000    -0.0349016  
C243     C      0.279050000000     0.266410000000     0.752940000000    -0.00441665 
C244     C      0.294380000000     0.302320000000     0.789760000000    -0.0881404  
C245     C      0.257650000000     0.245610000000     0.681560000000     0.00171651 
C246     C      0.221220000000     0.236660000000     0.641100000000    -0.0803118  
C247     C      0.276920000000     0.260760000000     0.676610000000    -0.0349171  
C248     C      0.209980000000     0.227770000000     0.605420000000     0.0699087  
C249     C      0.246560000000     0.217360000000     0.574300000000     0.0276229  
C250     C      0.287450000000     0.271150000000     0.711940000000    -0.031426   
C251     C      0.289540000000     0.278150000000     0.790370000000     0.0520101  
C252     C      0.245570000000     0.235690000000     0.644030000000     0.0400408  
C253     C      0.261550000000     0.210290000000     0.537960000000     0.291527   
C254     C      0.258150000000     0.293810000000     0.111400000000    -0.0554182  
C255     C      0.207810000000     0.246300000000     0.363420000000     0.0755573  
C256     C      0.219300000000     0.209700000000     0.333730000000     0.0755663  
C257     C      0.216950000000     0.258300000000     0.328440000000    -0.0879248  
C258     C      0.251250000000     0.278210000000     0.262930000000    -0.0312093  
C259     C      0.261620000000     0.289030000000     0.227790000000    -0.0348427  
C260     C      0.237340000000     0.257980000000     0.257860000000    -0.00438745 
C261     C      0.228430000000     0.221090000000     0.298200000000    -0.0882656  
C262     C      0.258090000000     0.279970000000     0.186840000000     0.00201472 
C263     C      0.293750000000     0.296390000000     0.151500000000    -0.0795408  
C264     C      0.243760000000     0.260050000000     0.181720000000    -0.0348815  
C265     C      0.305160000000     0.304960000000     0.115610000000     0.0699872  
C266     C      0.270050000000     0.302090000000     0.075350000000     0.0282145  
C267     C      0.233550000000     0.249140000000     0.216840000000    -0.0312318  
C268     C      0.227360000000     0.245680000000     0.295250000000     0.0523276  
C269     C      0.270030000000     0.290630000000     0.149660000000     0.0401851  
C270     C      0.256680000000     0.301690000000     0.035060000000     0.291138   
C271     C      0.569220000000     0.307040000000     0.946280000000    -0.0552003  
C272     C      0.419670000000     0.341930000000     0.946340000000     0.0763592  
C273     C      0.416730000000     0.307410000000     0.988310000000     0.0743938  
C274     C      0.444050000000     0.340520000000     0.946990000000    -0.0880003  
C275     C      0.493970000000     0.341570000000     0.980040000000    -0.0311975  
C276     C      0.518360000000     0.340700000000     0.982310000000    -0.034509   
C277     C      0.480970000000     0.321110000000     0.971360000000    -0.00439463 
C278     C      0.441120000000     0.305340000000     0.989290000000    -0.0883018  
C279     C      0.530320000000     0.319400000000     0.975610000000     0.0021077  
C280     C      0.568200000000     0.329800000000     0.010440000000    -0.0797468  
C281     C      0.517350000000     0.298920000000     0.966900000000    -0.0347443  
C282     C      0.592590000000     0.329830000000     0.010990000000     0.0711933  
C283     C      0.593830000000     0.307010000000     0.947700000000     0.0297222  
C284     C      0.492900000000     0.299740000000     0.965040000000    -0.0310353  
C285     C      0.455060000000     0.322210000000     0.968950000000     0.0524234  
C286     C      0.556260000000     0.318720000000     0.977450000000     0.04056    
C287     C      0.606070000000     0.291660000000     0.916590000000     0.293638   
C288     C      0.339810000000     0.448410000000     0.006060000000    -0.0550203  
C289     C      0.308150000000     0.599640000000     0.997820000000     0.0736492  
C290     C      0.335260000000     0.597870000000     0.940920000000     0.0740793  
C291     C      0.306970000000     0.575070000000     0.999220000000    -0.0874163  
C292     C      0.299930000000     0.522700000000     0.979850000000    -0.0313756  
C293     C      0.300370000000     0.498100000000     0.982600000000    -0.0350378  
C294     C      0.320790000000     0.535480000000     0.974040000000    -0.00449223 
C295     C      0.334580000000     0.573300000000     0.941560000000    -0.0884555  
C296     C      0.321710000000     0.485830000000     0.980030000000     0.00205757 
C297     C      0.306680000000     0.445970000000     0.959560000000    -0.079259   
C298     C      0.342530000000     0.498650000000     0.974310000000    -0.0351481  
C299     C      0.308810000000     0.421490000000     0.959660000000     0.069633   
C300     C      0.341990000000     0.423790000000     0.005080000000     0.0282477  
C301     C      0.342070000000     0.523160000000     0.971310000000    -0.0310853  
C302     C      0.320560000000     0.561590000000     0.971290000000     0.0516469  
C303     C      0.322420000000     0.459730000000     0.982550000000     0.039654   
C304     C      0.363040000000     0.413960000000     0.026160000000     0.291302   
Cd1      Cd     0.332260000000     0.335610000000     0.973090000000     0.514524   
Cd2      Cd     0.330270000000     0.685410000000     0.973360000000     0.513877   
Cd3      Cd     0.679010000000     0.332140000000     0.976710000000     0.517668   
Cd4      Cd     0.678400000000     0.683240000000     0.968750000000     0.513637   
Cd5      Cd     0.834020000000     0.184910000000     0.476320000000     0.513513   
Cd6      Cd     0.828990000000     0.835000000000     0.468430000000     0.51122    
Cd7      Cd     0.177200000000     0.835270000000     0.473250000000     0.515029   
Cd8      Cd     0.182330000000     0.185830000000     0.473750000000     0.511867   
H1       H      0.200500000000     0.108260000000     0.412820000000     0.0358973  
H2       H      0.172840000000     0.913580000000     0.536620000000     0.036862   
H3       H      0.174550000000     0.033230000000     0.415380000000     0.0426298  
H4       H      0.205420000000     0.987920000000     0.537470000000     0.0437654  
H5       H      0.176160000000     0.955920000000     0.539270000000     0.0555905  
H6       H      0.206910000000     0.030940000000     0.538940000000     0.0423708  
H7       H      0.198630000000     0.956670000000     0.409310000000     0.0598061  
H8       H      0.202040000000     0.065610000000     0.412410000000     0.0579561  
H9       H      0.181060000000     0.065040000000     0.543810000000     0.0571575  
H10      H      0.173110000000     0.990420000000     0.413910000000     0.044819   
H11      H      0.180160000000     0.107820000000     0.543290000000     0.0345689  
H12      H      0.214160000000     0.909810000000     0.341570000000     0.188414   
H13      H      0.099530000000     0.810660000000     0.527240000000     0.0361617  
H14      H      0.906560000000     0.846610000000     0.407260000000     0.0361402  
H15      H      0.025080000000     0.788290000000     0.483270000000     0.0436621  
H16      H      0.981750000000     0.859950000000     0.439430000000     0.0434671  
H17      H      0.948600000000     0.844310000000     0.403480000000     0.0554696  
H18      H      0.024340000000     0.860510000000     0.440530000000     0.0427895  
H19      H      0.949520000000     0.803760000000     0.518430000000     0.0590087  
H20      H      0.057030000000     0.807980000000     0.524450000000     0.0586818  
H21      H      0.058020000000     0.842570000000     0.402840000000     0.0583275  
H22      H      0.982320000000     0.787480000000     0.481400000000     0.0463851  
H23      H      0.100360000000     0.845050000000     0.406690000000     0.0373314  
H24      H      0.883440000000     0.813180000000     0.584510000000     0.190877   
H25      H      0.834200000000     0.911650000000     0.539820000000     0.0353845  
H26      H      0.797750000000     0.109250000000     0.510590000000     0.0371432  
H27      H      0.856940000000     0.985940000000     0.504610000000     0.0431858  
H28      H      0.789520000000     0.033580000000     0.454870000000     0.0442083  
H29      H      0.793840000000     0.066800000000     0.510360000000     0.0563326  
H30      H      0.786640000000     0.990490000000     0.455060000000     0.0423406  
H31      H      0.860810000000     0.060580000000     0.449310000000     0.0606788  
H32      H      0.833950000000     0.954370000000     0.542750000000     0.0580194  
H33      H      0.806150000000     0.956390000000     0.415870000000     0.0580388  
H34      H      0.859750000000     0.028840000000     0.504600000000     0.0451174  
H35      H      0.806720000000     0.913540000000     0.413850000000     0.0348053  
H36      H      0.897540000000     0.103680000000     0.404880000000     0.190895   
H37      H      0.104070000000     0.190560000000     0.407780000000     0.0342339  
H38      H      0.910540000000     0.194520000000     0.542900000000     0.0376383  
H39      H      0.029230000000     0.219350000000     0.423280000000     0.0428862  
H40      H      0.987140000000     0.173650000000     0.533550000000     0.0443891  
H41      H      0.952640000000     0.198280000000     0.545130000000     0.0562359  
H42      H      0.029780000000     0.174050000000     0.533220000000     0.0422054  
H43      H      0.955730000000     0.189770000000     0.409990000000     0.0599223  
H44      H      0.061630000000     0.192730000000     0.408800000000     0.0578255  
H45      H      0.063430000000     0.199250000000     0.544970000000     0.0573417  
H46      H      0.986500000000     0.218890000000     0.423570000000     0.0464118  
H47      H      0.105800000000     0.196560000000     0.542830000000     0.0350869  
H48      H      0.890250000000     0.156710000000     0.368900000000     0.191546   
H49      H      0.765450000000     0.790730000000     0.538600000000     0.0342387  
H50      H      0.690090000000     0.746620000000     0.866590000000     0.0368552  
H51      H      0.753350000000     0.738870000000     0.647450000000     0.043394   
H52      H      0.747560000000     0.781050000000     0.784800000000     0.0443412  
H53      H      0.707750000000     0.766360000000     0.806770000000     0.0562786  
H54      H      0.765610000000     0.800700000000     0.724060000000     0.0424805  
H55      H      0.746800000000     0.703790000000     0.777300000000     0.0615372  
H56      H      0.746090000000     0.772310000000     0.598620000000     0.0577708  
H57      H      0.801590000000     0.796750000000     0.680100000000     0.0585284  
H58      H      0.734930000000     0.719430000000     0.707860000000     0.0452168  
H59      H      0.820430000000     0.815060000000     0.619470000000     0.0350435  
H60      H      0.753570000000     0.651010000000     0.833360000000     0.189575   
H61      H      0.825690000000     0.774220000000     0.356690000000     0.0354108  
H62      H      0.693040000000     0.744270000000     0.073570000000     0.0374092  
H63      H      0.802550000000     0.760760000000     0.219710000000     0.042851   
H64      H      0.716090000000     0.754080000000     0.210230000000     0.0437215  
H65      H      0.711000000000     0.762140000000     0.134630000000     0.0556344  
H66      H      0.733640000000     0.772430000000     0.272360000000     0.0422213  
H67      H      0.763440000000     0.707870000000     0.135630000000     0.0606695  
H68      H      0.808640000000     0.754850000000     0.295410000000     0.0581391  
H69      H      0.754630000000     0.807970000000     0.291900000000     0.0572154  
H70      H      0.784980000000     0.742400000000     0.157530000000     0.0450258  
H71      H      0.771860000000     0.826590000000     0.353520000000     0.0352936  
H72      H      0.768230000000     0.655830000000     0.076560000000     0.189504   
H73      H      0.772400000000     0.195210000000     0.583280000000     0.0355914  
H74      H      0.743270000000     0.322180000000     0.876230000000     0.0391574  
H75      H      0.735220000000     0.250760000000     0.663340000000     0.0432362  
H76      H      0.782670000000     0.271220000000     0.789610000000     0.0443556  
H77      H      0.762740000000     0.306660000000     0.814320000000     0.0567642  
H78      H      0.801770000000     0.253680000000     0.728030000000     0.0426447  
H79      H      0.706960000000     0.256780000000     0.797350000000     0.0602926  
H80      H      0.753800000000     0.213670000000     0.643840000000     0.0582681  
H81      H      0.812240000000     0.261510000000     0.654090000000     0.0576434  
H82      H      0.716140000000     0.268310000000     0.724830000000     0.0472133  
H83      H      0.830560000000     0.242340000000     0.593680000000     0.0350016  
H84      H      0.668590000000     0.250910000000     0.917420000000     0.202703   
H85      H      0.781530000000     0.184430000000     0.352620000000     0.0350752  
H86      H      0.732940000000     0.328240000000     0.096080000000     0.0374096  
H87      H      0.771940000000     0.216030000000     0.221160000000     0.0434673  
H88      H      0.740560000000     0.297400000000     0.229150000000     0.0440779  
H89      H      0.751240000000     0.311180000000     0.157670000000     0.0562672  
H90      H      0.758980000000     0.280050000000     0.291470000000     0.0424239  
H91      H      0.715550000000     0.245860000000     0.134010000000     0.060968   
H92      H      0.762310000000     0.201660000000     0.291570000000     0.0582266  
H93      H      0.797250000000     0.267560000000     0.316990000000     0.0581876  
H94      H      0.753520000000     0.233350000000     0.158980000000     0.0454241  
H95      H      0.815820000000     0.249870000000     0.378310000000     0.0358867  
H96      H      0.671730000000     0.231470000000     0.060810000000     0.190674   
H97      H      0.690030000000     0.605570000000     0.904590000000     0.0411377  
H98      H      0.677260000000     0.411080000000     0.036570000000     0.0374431  
H99      H      0.663050000000     0.530250000000     0.914400000000     0.0432502  
H100     H      0.705510000000     0.485920000000     0.025750000000     0.0438567  
H101     H      0.679090000000     0.453410000000     0.037140000000     0.0555622  
H102     H      0.706010000000     0.528920000000     0.026820000000     0.0431093  
H103     H      0.685850000000     0.453710000000     0.901500000000     0.059887   
H104     H      0.691220000000     0.562880000000     0.903900000000     0.0592857  
H105     H      0.678450000000     0.562380000000     0.038610000000     0.057801   
H106     H      0.662170000000     0.487390000000     0.913650000000     0.0449381  
H107     H      0.677490000000     0.605210000000     0.038250000000     0.0358107  
H108     H      0.695070000000     0.406550000000     0.830470000000     0.189499   
H109     H      0.291550000000     0.685010000000     0.834140000000     0.0353434  
H110     H      0.221060000000     0.834440000000     0.605910000000     0.0370941  
H111     H      0.282050000000     0.725830000000     0.710960000000     0.0429465  
H112     H      0.229820000000     0.794740000000     0.731530000000     0.0440551  
H113     H      0.239770000000     0.817240000000     0.667010000000     0.055911   
H114     H      0.248820000000     0.776910000000     0.792860000000     0.0428041  
H115     H      0.224310000000     0.748020000000     0.619630000000     0.0602827  
H116     H      0.272870000000     0.702870000000     0.773200000000     0.0581184  
H117     H      0.286910000000     0.771660000000     0.825560000000     0.0580717  
H118     H      0.263000000000     0.743570000000     0.649820000000     0.0450334  
H119     H      0.305060000000     0.753150000000     0.886560000000     0.0368718  
H120     H      0.189490000000     0.730010000000     0.533860000000     0.188879   
H121     H      0.179350000000     0.782480000000     0.349890000000     0.0365813  
H122     H      0.327040000000     0.731830000000     0.102780000000     0.0395505  
H123     H      0.227430000000     0.734530000000     0.273220000000     0.0435682  
H124     H      0.278890000000     0.780800000000     0.177690000000     0.0446039  
H125     H      0.308950000000     0.750770000000     0.162870000000     0.0568597  
H126     H      0.260400000000     0.800190000000     0.238090000000     0.0429947  
H127     H      0.244430000000     0.714780000000     0.136300000000     0.0607183  
H128     H      0.197460000000     0.763540000000     0.289260000000     0.0587641  
H129     H      0.261580000000     0.801070000000     0.315190000000     0.0586692  
H130     H      0.245870000000     0.715190000000     0.212860000000     0.0452276  
H131     H      0.242760000000     0.820040000000     0.375180000000     0.0373715  
H132     H      0.227790000000     0.679590000000     0.050340000000     0.188582   
H133     H      0.602510000000     0.705920000000     0.032880000000     0.0345974  
H134     H      0.408530000000     0.661260000000     0.012330000000     0.0371058  
H135     H      0.526930000000     0.729420000000     0.997840000000     0.0427458  
H136     H      0.481710000000     0.658900000000     0.953870000000     0.0438976  
H137     H      0.450730000000     0.661410000000     0.010900000000     0.0562767  
H138     H      0.524450000000     0.657860000000     0.951610000000     0.0423722  
H139     H      0.450110000000     0.729150000000     0.950470000000     0.0611452  
H140     H      0.559990000000     0.708440000000     0.035030000000     0.0577005  
H141     H      0.556920000000     0.676930000000     0.910820000000     0.058153   
H142     H      0.484090000000     0.730360000000     0.000530000000     0.0452813  
H143     H      0.599360000000     0.674700000000     0.909650000000     0.0355724  
H144     H      0.404110000000     0.762560000000     0.909110000000     0.188632   
H145     H      0.306530000000     0.332130000000     0.824310000000     0.0358764  
H146     H      0.191000000000     0.228610000000     0.605210000000     0.0376679  
H147     H      0.302140000000     0.282920000000     0.707190000000     0.0429936  
H148     H      0.234710000000     0.228930000000     0.727340000000     0.0443349  
H149     H      0.210830000000     0.244450000000     0.666210000000     0.0564218  
H150     H      0.253130000000     0.247020000000     0.789100000000     0.0434935  
H151     H      0.277200000000     0.225660000000     0.611680000000     0.0609105  
H152     H      0.290790000000     0.312810000000     0.761860000000     0.0582371  
H153     H      0.290940000000     0.246670000000     0.829000000000     0.0589456  
H154     H      0.283500000000     0.265040000000     0.645340000000     0.0449676  
H155     H      0.306660000000     0.266530000000     0.890950000000     0.03805    
H156     H      0.290940000000     0.192270000000     0.521660000000     0.188793   
H157     H      0.220600000000     0.190650000000     0.334840000000     0.0364488  
H158     H      0.323560000000     0.309310000000     0.118940000000     0.0383695  
H159     H      0.222730000000     0.233720000000     0.211890000000     0.0429406  
H160     H      0.272460000000     0.304450000000     0.232660000000     0.0445335  
H161     H      0.303670000000     0.293860000000     0.180370000000     0.0567783  
H162     H      0.254620000000     0.285330000000     0.294170000000     0.043501   
H163     H      0.239790000000     0.289090000000     0.109230000000     0.0601909  
H164     H      0.236600000000     0.210690000000     0.273500000000     0.0585136  
H165     H      0.215620000000     0.277320000000     0.327200000000     0.0585643  
H166     H      0.240910000000     0.252500000000     0.150630000000     0.0450993  
H167     H      0.199820000000     0.256660000000     0.388420000000     0.0358798  
H168     H      0.225800000000     0.310910000000     0.007880000000     0.188461   
H169     H      0.406510000000     0.294270000000     0.005030000000     0.0360488  
H170     H      0.601000000000     0.339310000000     0.036640000000     0.037774   
H171     H      0.483330000000     0.283730000000     0.958090000000     0.043193   
H172     H      0.527910000000     0.356790000000     0.988770000000     0.044925   
H173     H      0.558740000000     0.338600000000     0.035660000000     0.0569048  
H174     H      0.485240000000     0.358240000000     0.985470000000     0.0439072  
H175     H      0.560180000000     0.297740000000     0.921130000000     0.0624201  
H176     H      0.449000000000     0.290980000000     0.006770000000     0.0587522  
H177     H      0.454220000000     0.353710000000     0.930340000000     0.0595327  
H178     H      0.526120000000     0.282220000000     0.961940000000     0.0454192  
H179     H      0.411850000000     0.356500000000     0.929260000000     0.0391166  
H180     H      0.606320000000     0.281000000000     0.855150000000     0.196607   
H181     H      0.346530000000     0.606240000000     0.917710000000     0.0347802  
H182     H      0.296110000000     0.411640000000     0.941270000000     0.0380833  
H183     H      0.358470000000     0.532500000000     0.967330000000     0.0426177  
H184     H      0.284060000000     0.488700000000     0.987150000000     0.044281   
H185     H      0.293070000000     0.454080000000     0.940640000000     0.0563632  
H186     H      0.283240000000     0.531710000000     0.981790000000     0.0428554  
H187     H      0.352300000000     0.458820000000     0.023940000000     0.0594576  
H188     H      0.345060000000     0.563540000000     0.918930000000     0.0576099  
H189     H      0.296000000000     0.566710000000     0.022850000000     0.0593822  
H190     H      0.359220000000     0.489700000000     0.971620000000     0.0448989  
H191     H      0.297700000000     0.609460000000     0.020470000000     0.0410226  
H192     H      0.381460000000     0.413830000000     0.081140000000     0.188112   
N1       N      0.183420000000     0.910230000000     0.471470000000    -0.16416    
N2       N      0.189990000000     0.111100000000     0.477930000000    -0.179456   
N3       N      0.903240000000     0.826460000000     0.464610000000    -0.164231   
N4       N      0.102980000000     0.828170000000     0.467340000000    -0.179247   
N5       N      0.831400000000     0.109780000000     0.479950000000    -0.164295   
N6       N      0.820760000000     0.909540000000     0.476450000000    -0.179864   
N7       N      0.908400000000     0.190270000000     0.475350000000    -0.163216   
N8       N      0.107970000000     0.193240000000     0.475200000000    -0.180041   
N9       N      0.708070000000     0.713740000000     0.857210000000    -0.164315   
N10      N      0.794340000000     0.804150000000     0.574680000000    -0.179882   
N11      N      0.717510000000     0.715580000000     0.068620000000    -0.163968   
N12      N      0.799990000000     0.801750000000     0.359590000000    -0.179166   
N13      N      0.713540000000     0.299020000000     0.872690000000    -0.162174   
N14      N      0.802790000000     0.217460000000     0.584070000000    -0.179405   
N15      N      0.713590000000     0.297190000000     0.078830000000    -0.16453    
N16      N      0.800070000000     0.215880000000     0.369800000000    -0.180147   
N17      N      0.680070000000     0.407400000000     0.968900000000    -0.164217   
N18      N      0.683510000000     0.608460000000     0.971400000000    -0.178271   
N19      N      0.211830000000     0.801470000000     0.576770000000    -0.164287   
N20      N      0.299610000000     0.717770000000     0.864770000000    -0.17938    
N21      N      0.296500000000     0.712230000000     0.084200000000    -0.164315   
N22      N      0.209740000000     0.802600000000     0.366910000000    -0.17886    
N23      N      0.404410000000     0.694840000000     0.981660000000    -0.164536   
N24      N      0.603980000000     0.690040000000     0.971250000000    -0.179879   
N25      N      0.222280000000     0.217620000000     0.572670000000    -0.16454    
N26      N      0.307600000000     0.300760000000     0.862160000000    -0.17906    
N27      N      0.293560000000     0.308100000000     0.077860000000    -0.164067   
N28      N      0.209070000000     0.222200000000     0.366050000000    -0.178862   
N29      N      0.605410000000     0.319460000000     0.979150000000    -0.163735   
N30      N      0.406150000000     0.325720000000     0.967370000000    -0.178985   
N31      N      0.326200000000     0.410310000000     0.982100000000    -0.16399    
N32      N      0.322440000000     0.610910000000     0.969290000000    -0.178654   
O1       O      0.328040000000     0.319000000000     0.044760000000    -0.242138   
O2       O      0.318920000000     0.334010000000     0.898840000000    -0.243621   
O3       O      0.369180000000     0.314460000000     0.989160000000    -0.243234   
O4       O      0.339840000000     0.374120000000     0.005390000000    -0.234644   
O5       O      0.315480000000     0.374260000000     0.953880000000    -0.240839   
O6       O      0.372080000000     0.344870000000     0.949120000000    -0.244469   
O7       O      0.296030000000     0.325400000000     0.011440000000    -0.235119   
O8       O      0.320500000000     0.300850000000     0.931350000000    -0.245123   
O9       O      0.296190000000     0.693420000000     0.019020000000    -0.231885   
O10      O      0.317840000000     0.719430000000     0.929920000000    -0.243842   
O11      O      0.313520000000     0.647550000000     0.996550000000    -0.237902   
O12      O      0.369740000000     0.676400000000     0.999630000000    -0.247144   
O13      O      0.367770000000     0.705080000000     0.955800000000    -0.232832   
O14      O      0.337650000000     0.645890000000     0.944270000000    -0.245538   
O15      O      0.329140000000     0.705750000000     0.042380000000    -0.244261   
O16      O      0.311370000000     0.685310000000     0.903140000000    -0.248483   
O17      O      0.681120000000     0.306290000000     0.914820000000    -0.218032   
O18      O      0.708710000000     0.328690000000     0.033250000000    -0.246416   
O19      O      0.641490000000     0.319920000000     0.945700000000    -0.221525   
O20      O      0.683860000000     0.370090000000     0.939490000000    -0.233576   
O21      O      0.676260000000     0.372380000000     0.005650000000    -0.246825   
O22      O      0.640100000000     0.331020000000     0.010540000000    -0.24323    
O23      O      0.712820000000     0.324700000000     0.929660000000    -0.241722   
O24      O      0.684860000000     0.299840000000     0.027360000000    -0.232002   
O25      O      0.706760000000     0.685610000000     0.910230000000    -0.227409   
O26      O      0.688270000000     0.715510000000     0.017980000000    -0.245762   
O27      O      0.684980000000     0.644320000000     0.937360000000    -0.234498   
O28      O      0.638780000000     0.680080000000     0.938760000000    -0.249041   
O29      O      0.640490000000     0.694190000000     0.001760000000    -0.24732    
O30      O      0.677780000000     0.644390000000     0.004230000000    -0.244415   
O31      O      0.681510000000     0.713430000000     0.912600000000    -0.246993   
O32      O      0.709270000000     0.684460000000     0.023380000000    -0.23154    
O33      O      0.818160000000     0.146570000000     0.500560000000    -0.24182    
O34      O      0.872100000000     0.191780000000     0.442860000000    -0.231285   
O35      O      0.803380000000     0.189990000000     0.530280000000    -0.245953   
O36      O      0.807750000000     0.184640000000     0.414320000000    -0.251133   
O37      O      0.824770000000     0.217510000000     0.427450000000    -0.249282   
O38      O      0.832630000000     0.213640000000     0.535120000000    -0.246075   
O39      O      0.845730000000     0.145170000000     0.454610000000    -0.230663   
O40      O      0.872920000000     0.186180000000     0.510060000000    -0.24175    
O41      O      0.824790000000     0.824650000000     0.543960000000    -0.241694   
O42      O      0.800520000000     0.830750000000     0.410770000000    -0.242924   
O43      O      0.866150000000     0.815740000000     0.487630000000    -0.232147   
O44      O      0.829730000000     0.873310000000     0.504980000000    -0.248806   
O45      O      0.817700000000     0.874210000000     0.440690000000    -0.245168   
O46      O      0.868660000000     0.843190000000     0.441370000000    -0.250656   
O47      O      0.796740000000     0.813410000000     0.503650000000    -0.251165   
O48      O      0.827730000000     0.804550000000     0.412570000000    -0.248191   
O49      O      0.138660000000     0.839420000000     0.439850000000    -0.244239   
O50      O      0.172410000000     0.875190000000     0.503220000000    -0.246964   
O51      O      0.178340000000     0.808840000000     0.411510000000    -0.243777   
O52      O      0.187140000000     0.801450000000     0.518550000000    -0.233651   
O53      O      0.202070000000     0.834380000000     0.537340000000    -0.247122   
O54      O      0.210080000000     0.827860000000     0.424190000000    -0.241426   
O55      O      0.138460000000     0.823150000000     0.501270000000    -0.245454   
O56      O      0.189930000000     0.873080000000     0.443310000000    -0.230794   
O57      O      0.191820000000     0.146930000000     0.443770000000    -0.243192   
O58      O      0.143940000000     0.191350000000     0.508070000000    -0.245971   
O59      O      0.201900000000     0.188490000000     0.404620000000    -0.240355   
O60      O      0.218650000000     0.192950000000     0.514420000000    -0.23574    
O61      O      0.188010000000     0.211220000000     0.535740000000    -0.243981   
O62      O      0.190200000000     0.221410000000     0.430810000000    -0.246662   
O63      O      0.182100000000     0.146960000000     0.509440000000    -0.250043   
O64      O      0.143240000000     0.188660000000     0.440310000000    -0.252287   
O65      O      0.212160000000     0.916360000000     0.369650000000    -0.327144   
O66      O      0.177310000000     0.899420000000     0.378580000000    -0.212389   
O67      O      0.890630000000     0.818880000000     0.558690000000    -0.311054   
O68      O      0.908520000000     0.784730000000     0.545930000000    -0.227574   
O69      O      0.882370000000     0.097970000000     0.413940000000    -0.327674   
O70      O      0.882830000000     0.119370000000     0.473080000000    -0.208895   
O71      O      0.896890000000     0.162110000000     0.395360000000    -0.305576   
O72      O      0.916030000000     0.191740000000     0.364610000000    -0.227854   
O73      O      0.750210000000     0.667700000000     0.831850000000    -0.325327   
O74      O      0.711760000000     0.662180000000     0.838530000000    -0.209331   
O75      O      0.759250000000     0.668550000000     0.088940000000    -0.327411   
O76      O      0.755330000000     0.687110000000     0.027210000000    -0.210111   
O77      O      0.681840000000     0.259760000000     0.906820000000    -0.304809   
O78      O      0.667130000000     0.262050000000     0.841620000000    -0.224831   
O79      O      0.680210000000     0.242640000000     0.078140000000    -0.326326   
O80      O      0.700780000000     0.256300000000     0.023390000000    -0.206834   
O81      O      0.696090000000     0.413330000000     0.858540000000    -0.326881   
O82      O      0.663460000000     0.395590000000     0.880530000000    -0.210561   
O83      O      0.193760000000     0.741310000000     0.555470000000    -0.327361   
O84      O      0.213640000000     0.763730000000     0.510040000000    -0.214033   
O85      O      0.237230000000     0.691820000000     0.063160000000    -0.327395   
O86      O      0.268460000000     0.668520000000     0.068690000000    -0.210198   
O87      O      0.411280000000     0.747870000000     0.917640000000    -0.32802    
O88      O      0.389130000000     0.744900000000     0.975520000000    -0.211082   
O89      O      0.280650000000     0.196780000000     0.544660000000    -0.32824    
O90      O      0.257320000000     0.217570000000     0.502350000000    -0.214222   
O91      O      0.235070000000     0.311310000000     0.033500000000    -0.32754    
O92      O      0.264640000000     0.291650000000     0.003940000000    -0.212652   
O93      O      0.598860000000     0.291100000000     0.875870000000    -0.325812   
O94      O      0.621990000000     0.278760000000     0.928070000000    -0.206784   
O95      O      0.367630000000     0.419620000000     0.066860000000    -0.327267   
O96      O      0.376850000000     0.401780000000     0.006190000000    -0.21296    


