data_structure

_audit_creation_method RASPA-1.0
_audit_creation_date 2023-5-22
_audit_author_name 'Poobodin Mano'

_cell_length_a    46.1276
_cell_length_b    45.3596
_cell_length_c    46.7055
_cell_angle_alpha 90
_cell_angle_beta  90
_cell_angle_gamma 90
_cell_volume      97723.3

_symmetry_cell_setting          triclinic
_symmetry_space_group_name_Hall 'P 1'
_symmetry_space_group_name_H-M  'P 1'
_symmetry_Int_Tables_number     1

_symmetry_equiv_pos_as_xyz 'x,y,z'

loop_
_atom_site_label
_atom_site_type_symbol
_atom_site_fract_x
_atom_site_fract_y
_atom_site_fract_z
_atom_site_charge
C1       C      0.910040000000     0.406970000000     0.896970000000     0.351256   
C2       C      0.834580000000     0.409210000000     0.827270000000     0.346302   
C3       C      0.905490000000     0.332380000000     0.824210000000     0.346134   
C4       C      0.834540000000     0.334060000000     0.894500000000     0.348697   
C5       C      0.157710000000     0.590210000000     0.145170000000     0.347396   
C6       C      0.081990000000     0.659190000000     0.149710000000     0.347801   
C7       C      0.155830000000     0.663960000000     0.077590000000     0.34649    
C8       C      0.082230000000     0.590080000000     0.074610000000     0.348679   
C9       C      0.396280000000     0.916070000000     0.899360000000     0.347472   
C10      C      0.398890000000     0.844040000000     0.822520000000     0.34465    
C11      C      0.328530000000     0.846380000000     0.899990000000     0.346368   
C12      C      0.328850000000     0.912550000000     0.818760000000     0.345153   
C13      C      0.655860000000     0.158120000000     0.072450000000     0.348221   
C14      C      0.578610000000     0.089090000000     0.076380000000     0.345265   
C15      C      0.650470000000     0.089270000000     0.148900000000     0.345303   
C16      C      0.580950000000     0.164770000000     0.143070000000     0.350487   
C17      C      0.338330000000     0.417280000000     0.324010000000     0.346463   
C18      C      0.408490000000     0.343610000000     0.324290000000     0.349787   
C19      C      0.407490000000     0.416700000000     0.397720000000     0.34651    
C20      C      0.335050000000     0.346280000000     0.399260000000     0.348221   
C21      C      0.656330000000     0.590990000000     0.654320000000     0.348836   
C22      C      0.583260000000     0.589370000000     0.581350000000     0.348125   
C23      C      0.580030000000     0.661120000000     0.653490000000     0.346234   
C24      C      0.650940000000     0.663850000000     0.579940000000     0.345483   
C25      C      0.901410000000     0.836080000000     0.325120000000     0.346139   
C26      C      0.823620000000     0.910720000000     0.329350000000     0.347631   
C27      C      0.824510000000     0.836250000000     0.393920000000     0.346354   
C28      C      0.904920000000     0.906770000000     0.391710000000     0.344499   
C29      C      0.082220000000     0.090850000000     0.562980000000     0.34596    
C30      C      0.080620000000     0.158290000000     0.641110000000     0.345311   
C31      C      0.150800000000     0.086840000000     0.638560000000     0.349867   
C32      C      0.152110000000     0.164280000000     0.566700000000     0.348028   
C33      C      0.023480000000     0.065110000000     0.514830000000    -0.129601   
C34      C      0.925740000000     0.920440000000     0.436300000000     0.0708385  
C35      C      0.941060000000     0.944140000000     0.393670000000     0.0704735  
C36      C      0.944310000000     0.938070000000     0.452540000000    -0.0890085  
C37      C      0.995890000000     0.967890000000     0.480210000000    -0.0365074  
C38      C      0.013020000000     0.986520000000     0.496980000000    -0.0313965  
C39      C      0.980920000000     0.978870000000     0.456240000000    -0.00381234 
C40      C      0.959990000000     0.962060000000     0.409250000000    -0.0890399  
C41      C      0.015720000000     0.016590000000     0.490150000000    -0.0125047  
C42      C      0.059320000000     0.027260000000     0.520530000000    -0.100185   
C43      C      0.001170000000     0.027460000000     0.465890000000    -0.0314724  
C44      C      0.074990000000     0.046010000000     0.538390000000     0.0740031  
C45      C      0.039630000000     0.083860000000     0.532810000000     0.15343    
C46      C      0.983930000000     0.008860000000     0.449180000000    -0.0366531  
C47      C      0.961670000000     0.959330000000     0.439100000000     0.0482135  
C48      C      0.033170000000     0.036620000000     0.508610000000     0.0656352  
C49      C      0.027110000000     0.114190000000     0.538470000000    -0.225275   
C50      C      0.774810000000     0.777510000000     0.419350000000    -0.129604   
C51      C      0.681460000000     0.705360000000     0.572170000000     0.0714938  
C52      C      0.668020000000     0.674870000000     0.533140000000     0.071461   
C53      C      0.698010000000     0.723130000000     0.554000000000    -0.0886245  
C54      C      0.744800000000     0.745870000000     0.514120000000    -0.0361488  
C55      C      0.761910000000     0.762670000000     0.495580000000    -0.0314209  
C56      C      0.717820000000     0.734780000000     0.505120000000    -0.00369139 
C57      C      0.684450000000     0.692070000000     0.514410000000    -0.0887644  
C58      C      0.752520000000     0.768650000000     0.467550000000    -0.0124777  
C59      C      0.784660000000     0.811770000000     0.457240000000    -0.10015    
C60      C      0.725540000000     0.757660000000     0.458530000000    -0.0316147  
C61      C      0.802020000000     0.827910000000     0.438550000000     0.0743655  
C62      C      0.792470000000     0.794050000000     0.400710000000     0.153618   
C63      C      0.708360000000     0.740990000000     0.477120000000    -0.0363994  
C64      C      0.699800000000     0.716520000000     0.524730000000     0.0486716  
C65      C      0.770880000000     0.786220000000     0.447780000000     0.0659588  
C66      C      0.795060000000     0.783080000000     0.370190000000    -0.225237   
C67      C      0.306890000000     0.302440000000     0.460230000000    -0.129692   
C68      C      0.185450000000     0.171170000000     0.528470000000     0.071246   
C69      C      0.169320000000     0.212310000000     0.555440000000     0.0711528  
C70      C      0.202970000000     0.189410000000     0.511710000000    -0.0892748  
C71      C      0.225270000000     0.235520000000     0.469980000000    -0.0362632  
C72      C      0.243440000000     0.253710000000     0.453820000000    -0.0314526  
C73      C      0.222720000000     0.239460000000     0.499730000000    -0.00398623 
C74      C      0.186620000000     0.231180000000     0.539130000000    -0.0892999  
C75      C      0.259550000000     0.276220000000     0.467060000000    -0.0125369  
C76      C      0.270970000000     0.305830000000     0.423240000000    -0.100122   
C77      C      0.256850000000     0.280290000000     0.496780000000    -0.0315386  
C78      C      0.289990000000     0.323090000000     0.407250000000     0.0743042  
C79      C      0.325820000000     0.320010000000     0.443870000000     0.153448   
C80      C      0.238640000000     0.262140000000     0.512920000000    -0.0364955  
C81      C      0.203800000000     0.219800000000     0.517000000000     0.0487379  
C82      C      0.279350000000     0.295130000000     0.449970000000     0.0658645  
C83      C      0.354990000000     0.327150000000     0.457070000000    -0.224693   
C84      C      0.432840000000     0.478230000000     0.443490000000    -0.129575   
C85      C      0.574930000000     0.544020000000     0.557120000000     0.0713355  
C86      C      0.540900000000     0.582990000000     0.553090000000     0.0710876  
C87      C      0.558050000000     0.526280000000     0.539220000000    -0.0894689  
C88      C      0.526030000000     0.502230000000     0.486860000000    -0.0365371  
C89      C      0.508630000000     0.485490000000     0.468520000000    -0.0316133  
C90      C      0.513560000000     0.518630000000     0.509210000000    -0.00420652 
C91      C      0.523380000000     0.565770000000     0.535360000000    -0.0897909  
C92      C      0.478370000000     0.484610000000     0.472260000000    -0.012593   
C93      C      0.468640000000     0.439890000000     0.442090000000    -0.100039   
C94      C      0.466010000000     0.500700000000     0.494930000000    -0.0317901  
C95      C      0.450830000000     0.423960000000     0.423610000000     0.0737442  
C96      C      0.415140000000     0.461900000000     0.424760000000     0.152113   
C97      C      0.483380000000     0.517600000000     0.513110000000    -0.0369695  
C98      C      0.531890000000     0.537080000000     0.528190000000     0.0486673  
C99      C      0.459710000000     0.467280000000     0.452430000000     0.0650441  
C100     C      0.387030000000     0.476210000000     0.415320000000    -0.223128   
C101     C      0.780310000000     0.975140000000     0.305560000000    -0.129543   
C102     C      0.672720000000     0.043490000000     0.160320000000     0.0712343  
C103     C      0.675770000000     0.083470000000     0.192900000000     0.0714822  
C104     C      0.688910000000     0.025740000000     0.178780000000    -0.0888036  
C105     C      0.709280000000     0.988910000000     0.229250000000    -0.0364512  
C106     C      0.726150000000     0.971390000000     0.247360000000    -0.0313325  
C107     C      0.716460000000     0.018640000000     0.224580000000    -0.00370353 
C108     C      0.692080000000     0.066350000000     0.211830000000    -0.0890715  
C109     C      0.750620000000     0.983170000000     0.261190000000    -0.0125142  
C110     C      0.775700000000     0.935490000000     0.271890000000    -0.100055   
C111     C      0.757660000000     0.012970000000     0.256680000000    -0.031241   
C112     C      0.793580000000     0.918300000000     0.289170000000     0.0744167  
C113     C      0.798260000000     0.957420000000     0.322870000000     0.153591   
C114     C      0.740760000000     0.030510000000     0.238610000000    -0.036535   
C115     C      0.698870000000     0.037110000000     0.204870000000     0.0487449  
C116     C      0.769030000000     0.964330000000     0.279840000000     0.0659059  
C117     C      0.808980000000     0.970910000000     0.350590000000    -0.22507    
C118     C      0.545470000000     0.231310000000     0.173150000000    -0.129746   
C119     C      0.425620000000     0.296430000000     0.309990000000     0.0714868  
C120     C      0.441790000000     0.339270000000     0.285660000000     0.0715014  
C121     C      0.442430000000     0.278620000000     0.292130000000    -0.0891933  
C122     C      0.466500000000     0.245800000000     0.240740000000    -0.0362916  
C123     C      0.483360000000     0.228270000000     0.222630000000    -0.0314431  
C124     C      0.477230000000     0.272750000000     0.251190000000    -0.00385682 
C125     C      0.458850000000     0.322120000000     0.267420000000    -0.0892731  
C126     C      0.511320000000     0.237310000000     0.214490000000    -0.0125333  
C127     C      0.530410000000     0.188200000000     0.198890000000    -0.100166   
C128     C      0.522050000000     0.264260000000     0.224920000000    -0.0314314  
C129     C      0.547680000000     0.171080000000     0.180950000000     0.0753753  
C130     C      0.562710000000     0.213690000000     0.155080000000     0.154286   
C131     C      0.505210000000     0.281770000000     0.243070000000    -0.03656    
C132     C      0.459300000000     0.291390000000     0.270480000000     0.0487674  
C133     C      0.529280000000     0.218680000000     0.195250000000     0.0662614  
C134     C      0.579160000000     0.229430000000     0.131530000000    -0.225251   
C135     C      0.174110000000     0.026170000000     0.686640000000    -0.129698   
C136     C      0.322800000000     0.953820000000     0.787940000000     0.070376   
C137     C      0.284470000000     0.919520000000     0.793770000000     0.0703452  
C138     C      0.305760000000     0.970810000000     0.769540000000    -0.0890317  
C139     C      0.259350000000     0.011380000000     0.745990000000    -0.0363566  
C140     C      0.241520000000     0.028570000000     0.728490000000    -0.0316437  
C141     C      0.258510000000     0.980420000000     0.744380000000    -0.00394627 
C142     C      0.266790000000     0.936040000000     0.775540000000    -0.089193   
C143     C      0.222320000000     0.015230000000     0.709060000000    -0.0125606  
C144     C      0.214030000000     0.058520000000     0.676890000000    -0.100127   
C145     C      0.221460000000     0.984300000000     0.707400000000    -0.0315841  
C146     C      0.195910000000     0.075520000000     0.659680000000     0.0750117  
C147     C      0.156020000000     0.043630000000     0.669230000000     0.154018   
C148     C      0.239380000000     0.967100000000     0.724810000000    -0.0365508  
C149     C      0.277280000000     0.962140000000     0.763270000000     0.0481882  
C150     C      0.203240000000     0.033540000000     0.690610000000     0.0660507  
C151     C      0.124850000000     0.033660000000     0.666020000000    -0.225271   
C152     C      0.517450000000     0.686460000000     0.696920000000    -0.129628   
C153     C      0.442230000000     0.837250000000     0.795730000000     0.0713816  
C154     C      0.407310000000     0.798960000000     0.797880000000     0.0711824  
C155     C      0.460240000000     0.819820000000     0.778650000000    -0.0886998  
C156     C      0.500920000000     0.771810000000     0.757680000000    -0.0361563  
C157     C      0.518800000000     0.753570000000     0.741230000000    -0.0314036  
C158     C      0.470750000000     0.772140000000     0.753280000000    -0.00366284 
C159     C      0.424790000000     0.780920000000     0.780850000000    -0.0887109  
C160     C      0.506930000000     0.735180000000     0.720030000000    -0.0123456  
C161     C      0.552410000000     0.725290000000     0.692290000000    -0.0995988  
C162     C      0.476800000000     0.735640000000     0.715500000000    -0.0314529  
C163     C      0.569800000000     0.706520000000     0.676060000000     0.0742466  
C164     C      0.535290000000     0.667710000000     0.680570000000     0.154077   
C165     C      0.458930000000     0.753910000000     0.731910000000    -0.0364934  
C166     C      0.451680000000     0.791220000000     0.771070000000     0.0485991  
C167     C      0.525860000000     0.715410000000     0.702840000000     0.0659548  
C168     C      0.524250000000     0.636700000000     0.675450000000    -0.22529    
C169     C      0.420000000000     0.976330000000     0.947650000000    -0.129249   
C170     C      0.570290000000     0.046290000000     0.048170000000     0.0715358  
C171     C      0.532230000000     0.080540000000     0.055780000000     0.0713936  
C172     C      0.552140000000     0.028770000000     0.031330000000    -0.088993   
C173     C      0.503640000000     0.988500000000     0.010570000000    -0.0363126  
C174     C      0.485470000000     0.971530000000     0.993200000000    -0.0315117  
C175     C      0.503970000000     0.019390000000     0.008130000000    -0.00380216 
C176     C      0.513530000000     0.063640000000     0.038930000000    -0.089228   
C177     C      0.467290000000     0.985040000000     0.972890000000    -0.0123111  
C178     C      0.457800000000     0.940380000000     0.942670000000    -0.0996     
C179     C      0.467670000000     0.015950000000     0.970460000000    -0.0313685  
C180     C      0.439750000000     0.923950000000     0.924860000000     0.074531   
C181     C      0.401990000000     0.959430000000     0.929660000000     0.15308    
C182     C      0.485740000000     0.032920000000     0.987920000000    -0.0366715  
C183     C      0.523420000000     0.037440000000     0.026420000000     0.0487937  
C184     C      0.448120000000     0.967000000000     0.954180000000     0.0655883  
C185     C      0.371620000000     0.970990000000     0.924520000000    -0.224337   
C186     C      0.045650000000     0.688240000000     0.214720000000    -0.129676   
C187     C      0.921620000000     0.824450000000     0.279700000000     0.0711643  
C188     C      0.934480000000     0.796120000000     0.320420000000     0.0707142  
C189     C      0.939390000000     0.807110000000     0.262330000000    -0.0890406  
C190     C      0.990820000000     0.777530000000     0.233960000000    -0.036243   
C191     C      0.008430000000     0.759900000000     0.216660000000    -0.0314452  
C192     C      0.974090000000     0.764950000000     0.255980000000    -0.00383948 
C193     C      0.952520000000     0.778360000000     0.303680000000    -0.0890653  
C194     C      0.009830000000     0.729280000000     0.221040000000    -0.0123945  
C195     C      0.029830000000     0.714860000000     0.173190000000    -0.0999041  
C196     C      0.993180000000     0.716680000000     0.243070000000    -0.0316255  
C197     C      0.047660000000     0.697170000000     0.156330000000     0.0747821  
C198     C      0.063590000000     0.670550000000     0.197400000000     0.15396    
C199     C      0.975490000000     0.734310000000     0.260320000000    -0.0364681  
C200     C      0.955140000000     0.783710000000     0.274230000000     0.0484994  
C201     C      0.028670000000     0.710550000000     0.202730000000     0.0660045  
C202     C      0.080940000000     0.646770000000     0.212410000000    -0.225211   
C203     C      0.270450000000     0.822770000000     0.949910000000    -0.129373   
C204     C      0.197840000000     0.670850000000     0.048860000000     0.0716258  
C205     C      0.166090000000     0.710990000000     0.057470000000     0.0713436  
C206     C      0.215630000000     0.688700000000     0.031980000000    -0.0889174  
C207     C      0.239000000000     0.726720000000     0.983790000000    -0.0362204  
C208     C      0.256020000000     0.744850000000     0.966400000000    -0.0313872  
C209     C      0.226890000000     0.737600000000     0.009320000000    -0.00370158 
C210     C      0.183370000000     0.729460000000     0.040690000000    -0.0888251  
C211     C      0.261310000000     0.774320000000     0.974110000000    -0.0123505  
C212     C      0.304270000000     0.783350000000     0.942500000000    -0.0998076  
C213     C      0.249340000000     0.785180000000     0.999700000000    -0.0317047  
C214     C      0.320310000000     0.801680000000     0.924540000000     0.074432   
C215     C      0.286930000000     0.841060000000     0.931770000000     0.153132   
C216     C      0.232350000000     0.767030000000     0.017120000000    -0.0364509  
C217     C      0.208460000000     0.718380000000     0.027620000000     0.0487158  
C218     C      0.278960000000     0.793740000000     0.955310000000     0.065788   
C219     C      0.276130000000     0.872310000000     0.927620000000    -0.22419    
C220     C      0.305420000000     0.482640000000     0.289100000000    -0.129392   
C221     C      0.174750000000     0.543220000000     0.160260000000     0.0709871  
C222     C      0.194960000000     0.586710000000     0.180160000000     0.0709004  
C223     C      0.192700000000     0.525800000000     0.177420000000    -0.0891087  
C224     C      0.244620000000     0.495490000000     0.204860000000    -0.0363561  
C225     C      0.262470000000     0.478570000000     0.222620000000    -0.0315113  
C226     C      0.230990000000     0.521010000000     0.215360000000    -0.00403519 
C227     C      0.213170000000     0.569970000000     0.197650000000    -0.0896193  
C228     C      0.267070000000     0.486790000000     0.251290000000    -0.0125279  
C229     C      0.285250000000     0.438250000000     0.269570000000    -0.099849   
C230     C      0.253300000000     0.512230000000     0.261810000000    -0.0316659  
C231     C      0.303040000000     0.421900000000     0.287710000000     0.0744367  
C232     C      0.323290000000     0.465830000000     0.307280000000     0.152646   
C233     C      0.235490000000     0.529140000000     0.244060000000    -0.0367024  
C234     C      0.212110000000     0.539130000000     0.196520000000     0.0485388  
C235     C      0.286180000000     0.468970000000     0.270190000000     0.0656126  
C236     C      0.343440000000     0.482760000000     0.326940000000    -0.223279   
C237     C      0.942740000000     0.266790000000     0.794230000000    -0.129644   
C238     C      0.034680000000     0.178780000000     0.652810000000     0.0705522  
C239     C      0.074750000000     0.186310000000     0.683760000000     0.070783   
C240     C      0.016940000000     0.195600000000     0.670700000000    -0.0897033  
C241     C      0.990140000000     0.246800000000     0.703310000000    -0.0365285  
C242     C      0.972810000000     0.264010000000     0.721290000000    -0.0317497  
C243     C      0.009850000000     0.226340000000     0.714820000000    -0.00419345 
C244     C      0.057600000000     0.203170000000     0.702180000000    -0.0893632  
C245     C      0.974710000000     0.261070000000     0.751190000000    -0.0127539  
C246     C      0.951910000000     0.309160000000     0.764890000000    -0.100099   
C247     C      0.994410000000     0.240590000000     0.762700000000    -0.0318137  
C248     C      0.934780000000     0.325990000000     0.783240000000     0.0732672  
C249     C      0.925360000000     0.284040000000     0.812500000000     0.15195    
C250     C      0.011810000000     0.223460000000     0.744730000000    -0.0367831  
C251     C      0.028340000000     0.208120000000     0.695700000000     0.0483858  
C252     C      0.956200000000     0.279260000000     0.770330000000     0.0652309  
C253     C      0.911500000000     0.268380000000     0.837680000000    -0.223713   
C254     C      0.775160000000     0.284120000000     0.917180000000    -0.129993   
C255     C      0.698940000000     0.185990000000     0.065400000000     0.0705858  
C256     C      0.666340000000     0.178660000000     0.026800000000     0.0707776  
C257     C      0.717000000000     0.203010000000     0.047990000000    -0.0891325  
C258     C      0.758560000000     0.224970000000     0.002300000000    -0.0364771  
C259     C      0.775990000000     0.242540000000     0.984730000000    -0.0318445  
C260     C      0.728160000000     0.226650000000     0.000590000000    -0.00399235 
C261     C      0.683940000000     0.195480000000     0.008780000000    -0.0891813  
C262     C      0.763410000000     0.262080000000     0.964960000000    -0.0128718  
C263     C      0.806080000000     0.295190000000     0.957050000000    -0.100627   
C264     C      0.733040000000     0.263800000000     0.963250000000    -0.0318538  
C265     C      0.822940000000     0.312830000000     0.939190000000     0.0734663  
C266     C      0.792430000000     0.301990000000     0.899390000000     0.151527   
C267     C      0.715630000000     0.246340000000     0.980890000000    -0.0368324  
C268     C      0.709540000000     0.208080000000     0.019320000000     0.048269   
C269     C      0.781860000000     0.280650000000     0.946150000000     0.0653124  
C270     C      0.783050000000     0.304780000000     0.868410000000    -0.222757   
C271     C      0.771090000000     0.451800000000     0.801490000000    -0.129434   
C272     C      0.702230000000     0.568970000000     0.663250000000     0.0715439  
C273     C      0.663800000000     0.562440000000     0.696360000000     0.0712737  
C274     C      0.720530000000     0.551640000000     0.680130000000    -0.0889499  
C275     C      0.748040000000     0.499870000000     0.711340000000    -0.036414   
C276     C      0.765490000000     0.481830000000     0.728440000000    -0.0315159  
C277     C      0.729270000000     0.520630000000     0.723860000000    -0.00381759 
C278     C      0.681510000000     0.545050000000     0.713770000000    -0.0891606  
C279     C      0.764570000000     0.484130000000     0.758440000000    -0.0124517  
C280     C      0.811180000000     0.457990000000     0.769360000000    -0.0996833  
C281     C      0.746020000000     0.505090000000     0.770940000000    -0.0315712  
C282     C      0.827700000000     0.439470000000     0.786710000000     0.0738573  
C283     C      0.788000000000     0.433040000000     0.818740000000     0.152521   
C284     C      0.728580000000     0.523120000000     0.753860000000    -0.0366434  
C285     C      0.710250000000     0.539390000000     0.705730000000     0.0486481  
C286     C      0.782570000000     0.464450000000     0.776680000000     0.0654673  
C287     C      0.773340000000     0.419980000000     0.844860000000    -0.223198   
C288     C      0.972030000000     0.433760000000     0.940410000000    -0.129595   
C289     C      0.043800000000     0.555620000000     0.068910000000     0.0716066  
C290     C      0.069490000000     0.572810000000     0.028230000000     0.071637   
C291     C      0.026520000000     0.537680000000     0.051600000000    -0.0891268  
C292     C      0.983090000000     0.514600000000     0.008100000000    -0.0362685  
C293     C      0.966360000000     0.496290000000     0.990590000000    -0.0314867  
C294     C      0.012990000000     0.517890000000     0.003180000000    -0.00372995 
C295     C      0.052610000000     0.555140000000     0.010290000000    -0.0889962  
C296     C      0.979150000000     0.480800000000     0.967760000000    -0.0125059  
C297     C      0.933790000000     0.469590000000     0.940320000000    -0.100165   
C298     C      0.009030000000     0.484160000000     0.962800000000    -0.0313505  
C299     C      0.917460000000     0.450940000000     0.922960000000     0.0746019  
C300     C      0.955250000000     0.415140000000     0.922850000000     0.153532   
C301     C      0.025740000000     0.502480000000     0.980290000000    -0.0364812  
C302     C      0.030860000000     0.537190000000     0.021910000000     0.0488058  
C303     C      0.961420000000     0.461140000000     0.949250000000     0.0659045  
C304     C      0.968650000000     0.385880000000     0.914520000000    -0.224629   
Cd1      Cd     0.872260000000     0.371460000000     0.860900000000     0.505803   
Cd2      Cd     0.118890000000     0.625780000000     0.111190000000     0.507633   
Cd3      Cd     0.363300000000     0.879910000000     0.859750000000     0.506958   
Cd4      Cd     0.617260000000     0.125530000000     0.109840000000     0.507242   
Cd5      Cd     0.372470000000     0.379620000000     0.361080000000     0.506519   
Cd6      Cd     0.618500000000     0.625960000000     0.618060000000     0.50696    
Cd7      Cd     0.863450000000     0.872210000000     0.359750000000     0.506906   
Cd8      Cd     0.117160000000     0.125590000000     0.602040000000     0.506721   
H1       H      0.940300000000     0.947050000000     0.370640000000     0.0312657  
H2       H      0.095130000000     0.037440000000     0.547000000000     0.0307173  
H3       H      0.972500000000     0.018160000000     0.431060000000     0.0392735  
H4       H      0.023690000000     0.977430000000     0.515650000000     0.0379588  
H5       H      0.067880000000     0.005530000000     0.515970000000     0.0565638  
H6       H      0.994390000000     0.944840000000     0.486060000000     0.0397943  
H7       H      0.002970000000     0.072570000000     0.506140000000     0.0619079  
H8       H      0.973320000000     0.977860000000     0.397880000000     0.053907   
H9       H      0.944540000000     0.935420000000     0.475580000000     0.0541093  
H10      H      0.003080000000     0.050410000000     0.459770000000     0.037378   
H11      H      0.912500000000     0.904470000000     0.447600000000     0.0325493  
H12      H      0.042190000000     0.131450000000     0.530580000000     0.0968059  
H13      H      0.006160000000     0.117710000000     0.527240000000     0.0755294  
H14      H      0.022790000000     0.117020000000     0.561690000000     0.0981762  
H15      H      0.656640000000     0.656030000000     0.524290000000     0.0322699  
H16      H      0.812230000000     0.847520000000     0.447220000000     0.0322156  
H17      H      0.687490000000     0.733250000000     0.469620000000     0.0397256  
H18      H      0.782770000000     0.770520000000     0.503020000000     0.0390281  
H19      H      0.781880000000     0.819480000000     0.479020000000     0.0571623  
H20      H      0.753010000000     0.741110000000     0.535340000000     0.0403233  
H21      H      0.764360000000     0.757560000000     0.411790000000     0.0623205  
H22      H      0.685500000000     0.685850000000     0.492040000000     0.0541595  
H23      H      0.709130000000     0.742070000000     0.562880000000     0.0544732  
H24      H      0.717540000000     0.762280000000     0.437200000000     0.0378545  
H25      H      0.680690000000     0.711190000000     0.594670000000     0.0328645  
H26      H      0.817720000000     0.776240000000     0.365720000000     0.0971723  
H27      H      0.781060000000     0.763590000000     0.366070000000     0.075807   
H28      H      0.788020000000     0.800500000000     0.355010000000     0.096136   
H29      H      0.156350000000     0.221980000000     0.572380000000     0.0318161  
H30      H      0.282280000000     0.330600000000     0.386560000000     0.0319232  
H31      H      0.237380000000     0.265590000000     0.535830000000     0.0398831  
H32      H      0.245220000000     0.249830000000     0.431010000000     0.0388193  
H33      H      0.249660000000     0.301050000000     0.414670000000     0.0570514  
H34      H      0.213070000000     0.218450000000     0.459110000000     0.0399743  
H35      H      0.313790000000     0.294080000000     0.480880000000     0.0622813  
H36      H      0.186300000000     0.254590000000     0.543700000000     0.0543402  
H37      H      0.216170000000     0.179630000000     0.495050000000     0.0546263  
H38      H      0.268730000000     0.297630000000     0.507570000000     0.0374327  
H39      H      0.185580000000     0.147740000000     0.523820000000     0.0319143  
H40      H      0.358020000000     0.351400000000     0.458320000000     0.0947748  
H41      H      0.356960000000     0.318650000000     0.479300000000     0.0753924  
H42      H      0.372620000000     0.316800000000     0.444390000000     0.0970936  
H43      H      0.533580000000     0.605130000000     0.558030000000     0.0307395  
H44      H      0.458770000000     0.402630000000     0.416620000000     0.0308483  
H45      H      0.473210000000     0.529650000000     0.530430000000     0.0392491  
H46      H      0.518850000000     0.473730000000     0.451060000000     0.0382426  
H47      H      0.489150000000     0.430410000000     0.448620000000     0.056348   
H48      H      0.549200000000     0.502870000000     0.483140000000     0.0403311  
H49      H      0.425910000000     0.499830000000     0.450650000000     0.0612144  
H50      H      0.503460000000     0.575070000000     0.527010000000     0.0537588  
H51      H      0.565260000000     0.504110000000     0.534370000000     0.0545744  
H52      H      0.442870000000     0.500080000000     0.498810000000     0.0368933  
H53      H      0.594970000000     0.534830000000     0.565340000000     0.0319396  
H54      H      0.368270000000     0.464020000000     0.424350000000     0.0933333  
H55      H      0.385220000000     0.499400000000     0.422800000000     0.072894   
H56      H      0.385800000000     0.476890000000     0.391590000000     0.0931066  
H57      H      0.670930000000     0.105980000000     0.199100000000     0.0320647  
H58      H      0.798250000000     0.896190000000     0.281610000000     0.0316837  
H59      H      0.747110000000     0.053220000000     0.235150000000     0.0400832  
H60      H      0.719860000000     0.948640000000     0.250720000000     0.0382349  
H61      H      0.767670000000     0.926300000000     0.252010000000     0.0569746  
H62      H      0.690430000000     0.979230000000     0.219110000000     0.0402477  
H63      H      0.774830000000     0.997310000000     0.312320000000     0.0620587  
H64      H      0.699050000000     0.075920000000     0.231930000000     0.0542825  
H65      H      0.693970000000     0.003360000000     0.172390000000     0.054657   
H66      H      0.776620000000     0.022620000000     0.266650000000     0.0379755  
H67      H      0.665560000000     0.033900000000     0.140260000000     0.0328854  
H68      H      0.832900000000     0.973520000000     0.349910000000     0.0969204  
H69      H      0.799670000000     0.993160000000     0.354430000000     0.0756354  
H70      H      0.802400000000     0.957000000000     0.369040000000     0.0959176  
H71      H      0.441940000000     0.362950000000     0.282500000000     0.0311566  
H72      H      0.547860000000     0.147540000000     0.185040000000     0.032171   
H73      H      0.514300000000     0.302170000000     0.251080000000     0.0398263  
H74      H      0.474320000000     0.207830000000     0.214640000000     0.0386619  
H75      H      0.518390000000     0.177540000000     0.215920000000     0.0573124  
H76      H      0.444870000000     0.238420000000     0.246220000000     0.0401701  
H77      H      0.544370000000     0.254930000000     0.169750000000     0.0622049  
H78      H      0.471270000000     0.332900000000     0.250750000000     0.0540034  
H79      H      0.442440000000     0.255000000000     0.295530000000     0.0544426  
H80      H      0.543680000000     0.271630000000     0.219420000000     0.0379622  
H81      H      0.412910000000     0.285680000000     0.326490000000     0.031557   
H82      H      0.572670000000     0.220630000000     0.110290000000     0.0968315  
H83      H      0.574550000000     0.253470000000     0.131120000000     0.0757545  
H84      H      0.602860000000     0.226960000000     0.134870000000     0.0967548  
H85      H      0.275420000000     0.899630000000     0.803030000000     0.0310089  
H86      H      0.205600000000     0.094670000000     0.649590000000     0.0321925  
H87      H      0.238490000000     0.943350000000     0.722660000000     0.0396397  
H88      H      0.242400000000     0.052340000000     0.730540000000     0.038568   
H89      H      0.236570000000     0.064810000000     0.679150000000     0.0573771  
H90      H      0.273420000000     0.022390000000     0.761160000000     0.0395527  
H91      H      0.165380000000     0.006950000000     0.697430000000     0.0620465  
H92      H      0.244830000000     0.928640000000     0.771610000000     0.0535206  
H93      H      0.314960000000     0.990550000000     0.760170000000     0.0540256  
H94      H      0.207190000000     0.973390000000     0.692330000000     0.0379167  
H95      H      0.344650000000     0.961380000000     0.792340000000     0.0315009  
H96      H      0.119810000000     0.029550000000     0.643120000000     0.0971605  
H97      H      0.120490000000     0.012720000000     0.677580000000     0.0754796  
H98      H      0.109990000000     0.050490000000     0.675100000000     0.0958697  
H99      H      0.386770000000     0.790070000000     0.805160000000     0.0324877  
H100     H      0.590110000000     0.715540000000     0.668310000000     0.0326229  
H101     H      0.435860000000     0.753980000000     0.727610000000     0.0398173  
H102     H      0.541870000000     0.753450000000     0.745510000000     0.038893   
H103     H      0.559650000000     0.747660000000     0.696160000000     0.0572816  
H104     H      0.510710000000     0.785230000000     0.774240000000     0.0404269  
H105     H      0.497080000000     0.678340000000     0.705390000000     0.0621849  
H106     H      0.417440000000     0.758850000000     0.775830000000     0.0542014  
H107     H      0.480640000000     0.828850000000     0.771240000000     0.0546355  
H108     H      0.467030000000     0.722090000000     0.699020000000     0.0378758  
H109     H      0.449690000000     0.859230000000     0.801130000000     0.0326709  
H110     H      0.539610000000     0.620380000000     0.684590000000     0.0974418  
H111     H      0.502950000000     0.632700000000     0.685860000000     0.0756497  
H112     H      0.521120000000     0.632860000000     0.652170000000     0.097177   
H113     H      0.523740000000     0.100670000000     0.065080000000     0.031553   
H114     H      0.448660000000     0.903650000000     0.916300000000     0.0323419  
H115     H      0.485820000000     0.056630000000     0.985220000000     0.0400258  
H116     H      0.485400000000     0.947830000000     0.995960000000     0.038461   
H117     H      0.479520000000     0.932420000000     0.946910000000     0.057106   
H118     H      0.517160000000     0.977460000000     0.026210000000     0.040349   
H119     H      0.411890000000     0.996610000000     0.956960000000     0.0616619  
H120     H      0.491380000000     0.070960000000     0.035950000000     0.054157   
H121     H      0.560730000000     0.008820000000     0.021820000000     0.0548745  
H122     H      0.454340000000     0.027060000000     0.954710000000     0.0378047  
H123     H      0.592430000000     0.038920000000     0.051270000000     0.0330997  
H124     H      0.355360000000     0.954130000000     0.930770000000     0.0937273  
H125     H      0.366860000000     0.990960000000     0.937480000000     0.0747201  
H126     H      0.368960000000     0.977260000000     0.901700000000     0.0965367  
H127     H      0.933080000000     0.791280000000     0.343120000000     0.0312582  
H128     H      0.047630000000     0.701600000000     0.133510000000     0.0325054  
H129     H      0.962540000000     0.723820000000     0.276760000000     0.0395388  
H130     H      0.021320000000     0.770310000000     0.200120000000     0.0388535  
H131     H      0.016740000000     0.731690000000     0.163000000000     0.0573218  
H132     H      0.990630000000     0.801110000000     0.230320000000     0.0401492  
H133     H      0.045180000000     0.684860000000     0.237690000000     0.0622536  
H134     H      0.964590000000     0.760780000000     0.313880000000     0.0538857  
H135     H      0.940410000000     0.811810000000     0.239620000000     0.0544575  
H136     H      0.993470000000     0.693100000000     0.246720000000     0.0378285  
H137     H      0.909720000000     0.842260000000     0.269600000000     0.0325279  
H138     H      0.104500000000     0.651200000000     0.210110000000     0.0972383  
H139     H      0.076310000000     0.645840000000     0.235740000000     0.0756554  
H140     H      0.075330000000     0.624780000000     0.203580000000     0.0966668  
H141     H      0.146770000000     0.720370000000     0.067050000000     0.0323324  
H142     H      0.339700000000     0.792280000000     0.915110000000     0.0324817  
H143     H      0.223760000000     0.775980000000     0.036870000000     0.0396952  
H144     H      0.264590000000     0.735940000000     0.946620000000     0.038973   
H145     H      0.311870000000     0.761120000000     0.946440000000     0.0571979  
H146     H      0.234860000000     0.704310000000     0.976910000000     0.0403641  
H147     H      0.250680000000     0.831070000000     0.959540000000     0.061953   
H148     H      0.176790000000     0.752160000000     0.037620000000     0.0542108  
H149     H      0.235030000000     0.679300000000     0.022640000000     0.0545804  
H150     H      0.253380000000     0.807650000000     0.006450000000     0.037577   
H151     H      0.204160000000     0.648010000000     0.051680000000     0.0324624  
H152     H      0.269580000000     0.875770000000     0.905000000000     0.0969308  
H153     H      0.256850000000     0.877240000000     0.941060000000     0.0747035  
H154     H      0.293180000000     0.888310000000     0.933970000000     0.0936205  
H155     H      0.196430000000     0.610510000000     0.181730000000     0.0310852  
H156     H      0.301170000000     0.398110000000     0.286370000000     0.0321518  
H157     H      0.224900000000     0.548380000000     0.252970000000     0.0391737  
H158     H      0.273060000000     0.459310000000     0.213750000000     0.0385506  
H159     H      0.270450000000     0.426760000000     0.255430000000     0.0569734  
H160     H      0.241900000000     0.488830000000     0.182750000000     0.040166   
H161     H      0.306740000000     0.506500000000     0.289460000000     0.0615447  
H162     H      0.228150000000     0.581190000000     0.211790000000     0.0537772  
H163     H      0.190960000000     0.502020000000     0.176070000000     0.0543415  
H164     H      0.255970000000     0.518880000000     0.283930000000     0.0372377  
H165     H      0.159860000000     0.532070000000     0.145940000000     0.0320078  
H166     H      0.366330000000     0.476830000000     0.322390000000     0.0938865  
H167     H      0.341640000000     0.506990000000     0.323970000000     0.0731631  
H168     H      0.337950000000     0.478170000000     0.349660000000     0.0924135  
H169     H      0.097340000000     0.183190000000     0.689430000000     0.0316003  
H170     H      0.932450000000     0.349160000000     0.778000000000     0.0317685  
H171     H      0.026590000000     0.207720000000     0.754270000000     0.0392216  
H172     H      0.957680000000     0.279410000000     0.711760000000     0.0382066  
H173     H      0.962150000000     0.319760000000     0.746730000000     0.0567626  
H174     H      0.988330000000     0.249770000000     0.680370000000     0.0398252  
H175     H      0.945490000000     0.243450000000     0.798430000000     0.0615881  
H176     H      0.067380000000     0.212690000000     0.721130000000     0.054172   
H177     H      0.994340000000     0.198510000000     0.665080000000     0.0534835  
H178     H      0.996590000000     0.238020000000     0.785660000000     0.0372547  
H179     H      0.025020000000     0.169490000000     0.633660000000     0.0297431  
H180     H      0.887540000000     0.270240000000     0.836450000000     0.0942743  
H181     H      0.916620000000     0.244440000000     0.838020000000     0.0742545  
H182     H      0.919710000000     0.277730000000     0.858090000000     0.0945086  
H183     H      0.646670000000     0.169400000000     0.017810000000     0.0314211  
H184     H      0.841470000000     0.323610000000     0.948910000000     0.0301757  
H185     H      0.692310000000     0.248620000000     0.979360000000     0.039147   
H186     H      0.799330000000     0.240470000000     0.986290000000     0.0379958  
H187     H      0.811830000000     0.293330000000     0.979470000000     0.0564089  
H188     H      0.768940000000     0.209750000000     0.016930000000     0.0397371  
H189     H      0.756550000000     0.272680000000     0.908390000000     0.0614723  
H190     H      0.677550000000     0.198380000000     0.986640000000     0.0536647  
H191     H      0.736400000000     0.212580000000     0.057170000000     0.05391    
H192     H      0.722710000000     0.278990000000     0.948560000000     0.0371331  
H193     H      0.705360000000     0.182800000000     0.087520000000     0.0314809  
H194     H      0.799870000000     0.295330000000     0.854100000000     0.0935081  
H195     H      0.762600000000     0.292670000000     0.863970000000     0.0733863  
H196     H      0.778900000000     0.328250000000     0.863050000000     0.0923408  
H197     H      0.641660000000     0.566140000000     0.703280000000     0.0308652  
H198     H      0.849860000000     0.435460000000     0.780010000000     0.0320187  
H199     H      0.714750000000     0.539220000000     0.764170000000     0.0398134  
H200     H      0.779250000000     0.465640000000     0.718150000000     0.0383739  
H201     H      0.821030000000     0.467540000000     0.750450000000     0.0569055  
H202     H      0.748810000000     0.497100000000     0.688330000000     0.0402216  
H203     H      0.748710000000     0.456160000000     0.807150000000     0.0616275  
H204     H      0.672530000000     0.535720000000     0.733190000000     0.0538109  
H205     H      0.742700000000     0.548150000000     0.673280000000     0.0546465  
H206     H      0.745170000000     0.507770000000     0.793970000000     0.0378153  
H207     H      0.711040000000     0.578060000000     0.643610000000     0.0322828  
H208     H      0.784230000000     0.427790000000     0.864660000000     0.0956212  
H209     H      0.750220000000     0.426620000000     0.846560000000     0.0739518  
H210     H      0.773630000000     0.395530000000     0.843670000000     0.0924905  
H211     H      0.086100000000     0.586350000000     0.018380000000     0.032323   
H212     H      0.896190000000     0.458810000000     0.916660000000     0.0310078  
H213     H      0.048770000000     0.504260000000     0.976080000000     0.039977   
H214     H      0.943460000000     0.493980000000     0.995160000000     0.0384757  
H215     H      0.924860000000     0.490770000000     0.946390000000     0.0570542  
H216     H      0.972520000000     0.526390000000     0.025350000000     0.0400728  
H217     H      0.993280000000     0.426690000000     0.947540000000     0.0621082  
H218     H      0.056450000000     0.555790000000     0.987430000000     0.0546877  
H219     H      0.010190000000     0.523910000000     0.061540000000     0.054387   
H220     H      0.019500000000     0.472810000000     0.945210000000     0.0377887  
H221     H      0.039880000000     0.555210000000     0.091800000000     0.0316294  
H222     H      0.971020000000     0.384530000000     0.890900000000     0.0953552  
H223     H      0.990660000000     0.382910000000     0.923730000000     0.0751496  
H224     H      0.955150000000     0.367430000000     0.922680000000     0.0955901  
N1       N      0.065490000000     0.074030000000     0.544750000000    -0.195132   
N2       N      0.923960000000     0.923640000000     0.407140000000    -0.180371   
N3       N      0.806340000000     0.819270000000     0.410610000000    -0.195166   
N4       N      0.666680000000     0.681370000000     0.561810000000    -0.1801     
N5       N      0.317330000000     0.329980000000     0.417000000000    -0.19562    
N6       N      0.168860000000     0.182540000000     0.550210000000    -0.181116   
N7       N      0.424120000000     0.434360000000     0.415230000000    -0.195538   
N8       N      0.566430000000     0.572160000000     0.563910000000    -0.180887   
N9       N      0.805220000000     0.928970000000     0.314250000000    -0.195538   
N10      N      0.666250000000     0.072130000000     0.167330000000    -0.180256   
N11      N      0.563960000000     0.183380000000     0.159320000000    -0.195355   
N12      N      0.425290000000     0.326500000000     0.306730000000    -0.181306   
N13      N      0.167120000000     0.068540000000     0.655790000000    -0.19531    
N14      N      0.312150000000     0.928490000000     0.800090000000    -0.180791   
N15      N      0.561590000000     0.678000000000     0.670000000000    -0.194682   
N16      N      0.416050000000     0.826840000000     0.805350000000    -0.179928   
N17      N      0.412240000000     0.933280000000     0.917920000000    -0.19531    
N18      N      0.560410000000     0.071990000000     0.060220000000    -0.180144   
N19      N      0.064630000000     0.675280000000     0.168000000000    -0.195049   
N20      N      0.919150000000     0.818950000000     0.308490000000    -0.180649   
N21      N      0.311820000000     0.830160000000     0.918760000000    -0.194971   
N22      N      0.173220000000     0.681900000000     0.061400000000    -0.180225   
N23      N      0.321860000000     0.435220000000     0.306570000000    -0.194939   
N24      N      0.175810000000     0.573420000000     0.161740000000    -0.180754   
N25      N      0.921630000000     0.313920000000     0.806970000000    -0.195305   
N26      N      0.063390000000     0.174320000000     0.659230000000    -0.18076    
N27      N      0.816530000000     0.316320000000     0.910600000000    -0.195771   
N28      N      0.673720000000     0.174110000000     0.054910000000    -0.181293   
N29      N      0.816580000000     0.427070000000     0.811270000000    -0.194959   
N30      N      0.674080000000     0.574230000000     0.671280000000    -0.181141   
N31      N      0.927770000000     0.423940000000     0.914130000000    -0.19601    
N32      N      0.065180000000     0.572940000000     0.057300000000    -0.180875   
O1       O      0.860260000000     0.403250000000     0.819480000000    -0.249526   
O2       O      0.831790000000     0.337160000000     0.867730000000    -0.260618   
O3       O      0.884980000000     0.415460000000     0.889560000000    -0.256898   
O4       O      0.902600000000     0.359610000000     0.818770000000    -0.250155   
O5       O      0.892750000000     0.323660000000     0.846600000000    -0.263139   
O6       O      0.917350000000     0.382000000000     0.887460000000    -0.264445   
O7       O      0.826900000000     0.397700000000     0.850710000000    -0.260435   
O8       O      0.855300000000     0.348380000000     0.905670000000    -0.255785   
O9       O      0.099430000000     0.639620000000     0.158310000000    -0.259965   
O10      O      0.102380000000     0.606050000000     0.064710000000    -0.253416   
O11      O      0.157990000000     0.618130000000     0.146170000000    -0.251424   
O12      O      0.161520000000     0.636910000000     0.081310000000    -0.250622   
O13      O      0.132980000000     0.673350000000     0.089580000000    -0.249367   
O14      O      0.139490000000     0.578770000000     0.128160000000    -0.251892   
O15      O      0.081760000000     0.663260000000     0.122850000000    -0.249458   
O16      O      0.078970000000     0.590790000000     0.101520000000    -0.253296   
O17      O      0.406490000000     0.869660000000     0.830290000000    -0.249457   
O18      O      0.319800000000     0.889020000000     0.830300000000    -0.253152   
O19      O      0.405360000000     0.891310000000     0.890530000000    -0.252017   
O20      O      0.351720000000     0.836240000000     0.889220000000    -0.249775   
O21      O      0.321770000000     0.872050000000     0.891860000000    -0.260244   
O22      O      0.371950000000     0.923860000000     0.889500000000    -0.26119    
O23      O      0.374610000000     0.835170000000     0.831850000000    -0.249026   
O24      O      0.354090000000     0.920700000000     0.825940000000    -0.252739   
O25      O      0.604950000000     0.082290000000     0.080330000000    -0.245252   
O26      O      0.581520000000     0.137150000000     0.147380000000    -0.2504     
O27      O      0.632010000000     0.147620000000     0.063770000000    -0.255328   
O28      O      0.641570000000     0.079670000000     0.125010000000    -0.24778    
O29      O      0.643950000000     0.115740000000     0.154650000000    -0.250557   
O30      O      0.661970000000     0.153240000000     0.098430000000    -0.254738   
O31      O      0.570190000000     0.112790000000     0.088110000000    -0.251796   
O32      O      0.597260000000     0.173800000000     0.123150000000    -0.261443   
O33      O      0.407630000000     0.371410000000     0.322000000000    -0.255488   
O34      O      0.361070000000     0.352320000000     0.405290000000    -0.262376   
O35      O      0.336570000000     0.389380000000     0.322970000000    -0.249769   
O36      O      0.417450000000     0.393340000000     0.386450000000    -0.253249   
O37      O      0.381210000000     0.422210000000     0.392140000000    -0.258021   
O38      O      0.356040000000     0.427220000000     0.342240000000    -0.258814   
O39      O      0.392740000000     0.332580000000     0.343730000000    -0.255453   
O40      O      0.326420000000     0.355880000000     0.375250000000    -0.252496   
O41      O      0.606510000000     0.579900000000     0.592540000000    -0.252171   
O42      O      0.649880000000     0.668540000000     0.606680000000    -0.245632   
O43      O      0.630210000000     0.596190000000     0.660910000000    -0.255855   
O44      O      0.574630000000     0.634710000000     0.646720000000    -0.257078   
O45      O      0.603730000000     0.671200000000     0.643800000000    -0.248818   
O46      O      0.664940000000     0.602110000000     0.630970000000    -0.253567   
O47      O      0.576520000000     0.615770000000     0.587230000000    -0.251458   
O48      O      0.636780000000     0.641760000000     0.571010000000    -0.252001   
O49      O      0.829010000000     0.884640000000     0.321250000000    -0.252631   
O50      O      0.889000000000     0.887510000000     0.403470000000    -0.247601   
O51      O      0.887200000000     0.857480000000     0.314820000000    -0.250175   
O52      O      0.831810000000     0.829240000000     0.368730000000    -0.260514   
O53      O      0.835510000000     0.860030000000     0.403100000000    -0.250181   
O54      O      0.898120000000     0.831450000000     0.351690000000    -0.254022   
O55      O      0.836790000000     0.918720000000     0.351770000000    -0.261563   
O56      O      0.901830000000     0.909800000000     0.364890000000    -0.252466   
O57      O      0.070900000000     0.147020000000     0.618240000000    -0.251046   
O58      O      0.151260000000     0.136700000000     0.562680000000    -0.254071   
O59      O      0.076170000000     0.117230000000     0.569350000000    -0.255944   
O60      O      0.123840000000     0.083530000000     0.634800000000    -0.260048   
O61      O      0.161960000000     0.108500000000     0.625390000000    -0.252678   
O62      O      0.104910000000     0.080720000000     0.574750000000    -0.252498   
O63      O      0.107320000000     0.154120000000     0.646020000000    -0.252147   
O64      O      0.136660000000     0.173910000000     0.587040000000    -0.254575   


