data_structure

_audit_creation_method RASPA-1.0
_audit_creation_date 2023-5-22
_audit_author_name 'Poobodin Mano'

_cell_length_a    47.3988
_cell_length_b    44.8579
_cell_length_c    45.7657
_cell_angle_alpha 90
_cell_angle_beta  90
_cell_angle_gamma 90
_cell_volume      97307.5

_symmetry_cell_setting          triclinic
_symmetry_space_group_name_Hall 'P 1'
_symmetry_space_group_name_H-M  'P 1'
_symmetry_Int_Tables_number     1

_symmetry_equiv_pos_as_xyz 'x,y,z'

loop_
_atom_site_label
_atom_site_type_symbol
_atom_site_fract_x
_atom_site_fract_y
_atom_site_fract_z
_atom_site_charge
C1       C      0.901280000000     0.430480000000     0.924590000000     0.345255   
C2       C      0.832570000000     0.429570000000     0.844790000000     0.345866   
C3       C      0.900970000000     0.361180000000     0.845620000000     0.346081   
C4       C      0.832220000000     0.361460000000     0.925620000000     0.346437   
C5       C      0.081720000000     0.608960000000     0.098000000000     0.347278   
C6       C      0.154410000000     0.610150000000     0.172960000000     0.347139   
C7       C      0.154730000000     0.679400000000     0.097400000000     0.347088   
C8       C      0.082530000000     0.680880000000     0.171690000000     0.346712   
C9       C      0.331500000000     0.857980000000     0.920130000000     0.346514   
C10      C      0.404850000000     0.932720000000     0.919600000000     0.347951   
C11      C      0.403960000000     0.858320000000     0.850320000000     0.346283   
C12      C      0.331900000000     0.934420000000     0.850050000000     0.347454   
C13      C      0.654300000000     0.180980000000     0.099730000000     0.347369   
C14      C      0.581730000000     0.179170000000     0.173700000000     0.347544   
C15      C      0.582130000000     0.109410000000     0.098190000000     0.347205   
C16      C      0.653770000000     0.108330000000     0.173010000000     0.346754   
C17      C      0.332280000000     0.432750000000     0.350110000000     0.348336   
C18      C      0.403380000000     0.357540000000     0.349430000000     0.3496     
C19      C      0.401370000000     0.432430000000     0.422930000000     0.346109   
C20      C      0.331060000000     0.357960000000     0.421190000000     0.345769   
C21      C      0.581990000000     0.683290000000     0.671010000000     0.346703   
C22      C      0.653200000000     0.606290000000     0.668600000000     0.347895   
C23      C      0.579290000000     0.609620000000     0.600150000000     0.347842   
C24      C      0.652570000000     0.682960000000     0.598940000000     0.346728   
C25      C      0.829480000000     0.860140000000     0.420560000000     0.346072   
C26      C      0.906480000000     0.859060000000     0.350150000000     0.345303   
C27      C      0.830020000000     0.929780000000     0.350880000000     0.345359   
C28      C      0.908510000000     0.928300000000     0.419820000000     0.346154   
C29      C      0.079940000000     0.182590000000     0.670860000000     0.34936    
C30      C      0.152620000000     0.109720000000     0.672330000000     0.347949   
C31      C      0.084590000000     0.106420000000     0.597750000000     0.346174   
C32      C      0.152800000000     0.182820000000     0.600080000000     0.345325   
C33      C      0.938220000000     0.932590000000     0.461460000000     0.0723618  
C34      C      0.956670000000     0.949040000000     0.478950000000    -0.0887909  
C35      C      0.964040000000     0.978180000000     0.471000000000     0.0499555  
C36      C      0.952720000000     0.990000000000     0.445190000000    -0.0885559  
C37      C      0.934350000000     0.972910000000     0.428200000000     0.0722692  
C38      C      0.983070000000     0.996320000000     0.489730000000    -0.0044661  
C39      C      0.980550000000     0.995480000000     0.520330000000    -0.033731   
C40      C      0.997980000000     0.013040000000     0.537940000000    -0.0340053  
C41      C      0.018330000000     0.031870000000     0.525370000000    -0.00437178 
C42      C      0.021040000000     0.032520000000     0.494780000000    -0.0340149  
C43      C      0.003630000000     0.014940000000     0.477170000000    -0.0338994  
C44      C      0.036290000000     0.051180000000     0.544080000000     0.0499976  
C45      C      0.047640000000     0.040430000000     0.570310000000    -0.0888021  
C46      C      0.063960000000     0.059150000000     0.587920000000     0.072375   
C47      C      0.058230000000     0.098840000000     0.554210000000     0.0721923  
C48      C      0.041890000000     0.080730000000     0.536070000000    -0.0887304  
C49      C      0.677050000000     0.728510000000     0.590800000000     0.0721209  
C50      C      0.694250000000     0.746610000000     0.573470000000    -0.0885461  
C51      C      0.703900000000     0.736250000000     0.546360000000     0.0499442  
C52      C      0.695800000000     0.707680000000     0.537290000000    -0.0888507  
C53      C      0.678610000000     0.690190000000     0.555150000000     0.0726051  
C54      C      0.722380000000     0.755040000000     0.527640000000    -0.00445188 
C55      C      0.717430000000     0.785820000000     0.524830000000    -0.0338659  
C56      C      0.734720000000     0.803380000000     0.507050000000    -0.03398    
C57      C      0.757340000000     0.790550000000     0.491640000000    -0.00447804 
C58      C      0.762330000000     0.759810000000     0.494530000000    -0.0338967  
C59      C      0.745080000000     0.742270000000     0.512330000000    -0.0338863  
C60      C      0.775750000000     0.809140000000     0.472710000000     0.0499861  
C61      C      0.784670000000     0.837420000000     0.481800000000    -0.0887047  
C62      C      0.802490000000     0.854290000000     0.463980000000     0.0723197  
C63      C      0.802590000000     0.816090000000     0.428170000000     0.0723452  
C64      C      0.784830000000     0.798600000000     0.445460000000    -0.0888053  
C65      C      0.285420000000     0.339270000000     0.432560000000     0.0723168  
C66      C      0.267490000000     0.322080000000     0.449970000000    -0.0886668  
C67      C      0.278400000000     0.306090000000     0.473720000000     0.0499648  
C68      C      0.307420000000     0.307770000000     0.479310000000    -0.0887732  
C69      C      0.324740000000     0.325140000000     0.461440000000     0.0723028  
C70      C      0.259620000000     0.287840000000     0.492610000000    -0.00450785 
C71      C      0.232710000000     0.298290000000     0.500520000000    -0.0338713  
C72      C      0.215090000000     0.281170000000     0.518340000000    -0.0340234  
C73      C      0.223980000000     0.253210000000     0.528710000000    -0.00449023 
C74      C      0.250880000000     0.242750000000     0.520820000000    -0.033976   
C75      C      0.268480000000     0.259850000000     0.502960000000    -0.0338705  
C76      C      0.205250000000     0.234970000000     0.547630000000     0.0499668  
C77      C      0.176340000000     0.232690000000     0.541650000000    -0.0888216  
C78      C      0.159080000000     0.215220000000     0.559490000000     0.072246   
C79      C      0.198230000000     0.202350000000     0.589190000000     0.072331   
C80      C      0.216110000000     0.219570000000     0.571770000000    -0.0888553  
C81      C      0.424890000000     0.478360000000     0.431870000000     0.0724375  
C82      C      0.441960000000     0.496420000000     0.449340000000    -0.0887133  
C83      C      0.452060000000     0.485730000000     0.476140000000     0.0499655  
C84      C      0.444430000000     0.456890000000     0.484840000000    -0.0887066  
C85      C      0.427310000000     0.439440000000     0.466840000000     0.0722033  
C86      C      0.470690000000     0.504430000000     0.494790000000    -0.00444695 
C87      C      0.491960000000     0.522080000000     0.482170000000    -0.0338797  
C88      C      0.509620000000     0.539470000000     0.499670000000    -0.0338598  
C89      C      0.506490000000     0.539600000000     0.530210000000    -0.00454035 
C90      C      0.485230000000     0.521960000000     0.542860000000    -0.0339971  
C91      C      0.467510000000     0.504600000000     0.525350000000    -0.0339038  
C92      C      0.525360000000     0.558050000000     0.548780000000     0.0501326  
C93      C      0.532720000000     0.587040000000     0.540350000000    -0.0890607  
C94      C      0.550680000000     0.604010000000     0.557870000000     0.0728579  
C95      C      0.554330000000     0.564380000000     0.591960000000     0.072433   
C96      C      0.536330000000     0.546810000000     0.574990000000    -0.0888122  
C97      C      0.804210000000     0.937300000000     0.306950000000     0.0722304  
C98      C      0.786430000000     0.954580000000     0.289480000000    -0.0886094  
C99      C      0.776370000000     0.982030000000     0.299760000000     0.0499008  
C100     C      0.784460000000     0.991340000000     0.327770000000    -0.0885788  
C101     C      0.802300000000     0.973510000000     0.344640000000     0.0722059  
C102     C      0.757750000000     0.000920000000     0.281270000000    -0.00452577 
C103     C      0.736530000000     0.987970000000     0.263960000000    -0.0337419  
C104     C      0.719310000000     0.005690000000     0.246280000000    -0.0340841  
C105     C      0.722850000000     0.036790000000     0.245530000000    -0.00443516 
C106     C      0.743960000000     0.049780000000     0.262960000000    -0.0339924  
C107     C      0.761220000000     0.032050000000     0.280590000000    -0.0337717  
C108     C      0.704710000000     0.055600000000     0.226520000000     0.0499841  
C109     C      0.698000000000     0.046510000000     0.198070000000    -0.088808   
C110     C      0.681000000000     0.064470000000     0.180440000000     0.0725775  
C111     C      0.676960000000     0.100190000000     0.218400000000     0.0722851  
C112     C      0.693990000000     0.082830000000     0.236590000000    -0.088817   
C113     C      0.574010000000     0.222010000000     0.203200000000     0.0726888  
C114     C      0.556600000000     0.239450000000     0.220910000000    -0.0887827  
C115     C      0.528920000000     0.230290000000     0.226780000000     0.0500618  
C116     C      0.519430000000     0.203430000000     0.214620000000    -0.0887923  
C117     C      0.537420000000     0.186520000000     0.197010000000     0.0723464  
C118     C      0.510010000000     0.248760000000     0.245330000000    -0.00441745 
C119     C      0.520440000000     0.262950000000     0.270510000000    -0.0339391  
C120     C      0.502780000000     0.280670000000     0.287720000000    -0.0338866  
C121     C      0.474280000000     0.284620000000     0.280170000000    -0.00451386 
C122     C      0.463800000000     0.270290000000     0.255100000000    -0.0338148  
C123     C      0.481460000000     0.252580000000     0.237870000000    -0.0339242  
C124     C      0.455600000000     0.303770000000     0.298290000000     0.050148   
C125     C      0.465400000000     0.330890000000     0.309580000000    -0.0889958  
C126     C      0.447610000000     0.348630000000     0.326570000000     0.0727061  
C127     C      0.410610000000     0.313420000000     0.321590000000     0.0725229  
C128     C      0.427820000000     0.295150000000     0.304460000000    -0.0888825  
C129     C      0.320670000000     0.956260000000     0.804190000000     0.0725547  
C130     C      0.303230000000     0.973790000000     0.786610000000    -0.0886238  
C131     C      0.279440000000     0.987730000000     0.798640000000     0.0499298  
C132     C      0.273870000000     0.983600000000     0.828450000000    -0.0885575  
C133     C      0.291680000000     0.965750000000     0.845360000000     0.0721894  
C134     C      0.260470000000     0.006260000000     0.780130000000    -0.0044324  
C135     C      0.271590000000     0.024580000000     0.757990000000    -0.033808   
C136     C      0.253750000000     0.041590000000     0.740290000000    -0.0340512  
C137     C      0.224390000000     0.040850000000     0.744430000000    -0.00454513 
C138     C      0.213240000000     0.022770000000     0.766680000000    -0.0340163  
C139     C      0.231050000000     0.005590000000     0.784250000000    -0.0337922  
C140     C      0.205460000000     0.058820000000     0.725520000000     0.0501955  
C141     C      0.209670000000     0.059930000000     0.695250000000    -0.0890765  
C142     C      0.191670000000     0.076920000000     0.677760000000     0.0728592  
C143     C      0.165570000000     0.091980000000     0.719430000000     0.0727548  
C144     C      0.183030000000     0.075020000000     0.737550000000    -0.0890604  
C145     C      0.537130000000     0.704350000000     0.681560000000     0.0723731  
C146     C      0.519530000000     0.721760000000     0.699100000000    -0.0887898  
C147     C      0.530390000000     0.735890000000     0.723980000000     0.0499971  
C148     C      0.559060000000     0.732180000000     0.730530000000    -0.0887273  
C149     C      0.576070000000     0.714630000000     0.712480000000     0.0725855  
C150     C      0.511850000000     0.754250000000     0.743020000000    -0.00447784 
C151     C      0.491430000000     0.773220000000     0.730750000000    -0.0338934  
C152     C      0.473730000000     0.790180000000     0.748620000000    -0.0339565  
C153     C      0.476030000000     0.788590000000     0.779210000000    -0.00440079 
C154     C      0.496550000000     0.769750000000     0.791500000000    -0.0339514  
C155     C      0.514260000000     0.752780000000     0.773610000000    -0.033834   
C156     C      0.457040000000     0.806510000000     0.798180000000     0.0499527  
C157     C      0.428390000000     0.809670000000     0.791310000000    -0.0887272  
C158     C      0.410890000000     0.826900000000     0.809130000000     0.0726358  
C159     C      0.449290000000     0.837860000000     0.840550000000     0.0722528  
C160     C      0.467380000000     0.820760000000     0.823240000000    -0.0886944  
C161     C      0.430370000000     0.977840000000     0.926730000000     0.0724057  
C162     C      0.447860000000     0.995970000000     0.943720000000    -0.0887099  
C163     C      0.457300000000     0.985970000000     0.971030000000     0.0500676  
C164     C      0.449020000000     0.957600000000     0.980490000000    -0.0888519  
C165     C      0.431620000000     0.940030000000     0.962920000000     0.0727359  
C166     C      0.475590000000     0.005000000000     0.989660000000    -0.00445837 
C167     C      0.497960000000     0.021360000000     0.977420000000    -0.0339561  
C168     C      0.515440000000     0.038820000000     0.995110000000    -0.0337423  
C169     C      0.510900000000     0.040380000000     0.025450000000    -0.00451953 
C170     C      0.488330000000     0.024250000000     0.037610000000    -0.0338746  
C171     C      0.470930000000     0.006750000000     0.019940000000    -0.0340516  
C172     C      0.529740000000     0.058520000000     0.044420000000     0.0499296  
C173     C      0.539610000000     0.086460000000     0.035260000000    -0.0886453  
C174     C      0.557190000000     0.103180000000     0.053490000000     0.072276   
C175     C      0.555570000000     0.065350000000     0.089630000000     0.0726774  
C176     C      0.538030000000     0.048040000000     0.071960000000    -0.0887478  
C177     C      0.932530000000     0.814430000000     0.342520000000     0.0723025  
C178     C      0.950180000000     0.796690000000     0.325350000000    -0.0888333  
C179     C      0.959490000000     0.807060000000     0.298140000000     0.0500191  
C180     C      0.950880000000     0.835420000000     0.288920000000    -0.0888216  
C181     C      0.933300000000     0.852610000000     0.306700000000     0.0722743  
C182     C      0.977900000000     0.788320000000     0.279360000000    -0.00455434 
C183     C      0.000310000000     0.771990000000     0.291550000000    -0.0339069  
C184     C      0.017580000000     0.754310000000     0.273870000000    -0.0339028  
C185     C      0.012800000000     0.752480000000     0.243600000000    -0.00434387 
C186     C      0.990340000000     0.768790000000     0.231440000000    -0.0339266  
C187     C      0.973130000000     0.786530000000     0.249110000000    -0.0338805  
C188     C      0.031150000000     0.733660000000     0.224750000000     0.0499106  
C189     C      0.040620000000     0.705720000000     0.234340000000    -0.0886065  
C190     C      0.057810000000     0.688350000000     0.216330000000     0.0721595  
C191     C      0.056530000000     0.725490000000     0.179490000000     0.0726201  
C192     C      0.039370000000     0.743460000000     0.196950000000    -0.0887179  
C193     C      0.180870000000     0.723730000000     0.088810000000     0.0727266  
C194     C      0.198600000000     0.741040000000     0.071340000000    -0.0888019  
C195     C      0.207770000000     0.730220000000     0.044230000000     0.0499469  
C196     C      0.198610000000     0.701930000000     0.035310000000    -0.0885897  
C197     C      0.180820000000     0.685220000000     0.053340000000     0.0722324  
C198     C      0.226710000000     0.748420000000     0.025430000000    -0.00454169 
C199     C      0.248640000000     0.765290000000     0.037890000000    -0.0338312  
C200     C      0.266040000000     0.782970000000     0.020390000000    -0.0341047  
C201     C      0.262010000000     0.784160000000     0.989980000000    -0.00436168 
C202     C      0.240330000000     0.767020000000     0.977450000000    -0.0339718  
C203     C      0.222860000000     0.749380000000     0.994970000000    -0.0336995  
C204     C      0.280170000000     0.803500000000     0.971520000000     0.049882   
C205     C      0.287440000000     0.832260000000     0.980760000000    -0.088731   
C206     C      0.304550000000     0.850200000000     0.963240000000     0.0723918  
C207     C      0.307570000000     0.811980000000     0.927590000000     0.0720572  
C208     C      0.290390000000     0.793460000000     0.944530000000    -0.0886521  
C209     C      0.316470000000     0.448810000000     0.303380000000     0.072635   
C210     C      0.299250000000     0.466710000000     0.285900000000    -0.0889166  
C211     C      0.280480000000     0.486890000000     0.298860000000     0.050161   
C212     C      0.279620000000     0.488630000000     0.329410000000    -0.0890438  
C213     C      0.297190000000     0.470450000000     0.346230000000     0.0728532  
C214     C      0.261770000000     0.505860000000     0.280590000000    -0.0045431  
C215     C      0.272010000000     0.519270000000     0.254940000000    -0.0338987  
C216     C      0.254330000000     0.536820000000     0.237580000000    -0.0338279  
C217     C      0.225970000000     0.541320000000     0.245430000000    -0.00455842 
C218     C      0.215760000000     0.528000000000     0.271150000000    -0.033926   
C219     C      0.233460000000     0.510500000000     0.288550000000    -0.0339026  
C220     C      0.207070000000     0.559620000000     0.226730000000     0.0500391  
C221     C      0.216700000000     0.586130000000     0.213990000000    -0.0888399  
C222     C      0.198750000000     0.602860000000     0.196180000000     0.0722913  
C223     C      0.161910000000     0.567840000000     0.203270000000     0.0726288  
C224     C      0.179270000000     0.550600000000     0.221230000000    -0.0889142  
C225     C      0.942480000000     0.355910000000     0.816890000000     0.0723004  
C226     C      0.960180000000     0.338810000000     0.799150000000    -0.0885921  
C227     C      0.952630000000     0.309540000000     0.791810000000     0.0499399  
C228     C      0.927000000000     0.298300000000     0.802380000000    -0.0886806  
C229     C      0.909860000000     0.315980000000     0.820130000000     0.07248    
C230     C      0.971520000000     0.290690000000     0.773570000000    -0.00436984 
C231     C      0.986270000000     0.302970000000     0.749770000000    -0.0339464  
C232     C      0.004170000000     0.285240000000     0.732810000000    -0.0339076  
C233     C      0.007660000000     0.254810000000     0.739200000000    -0.00445451 
C234     C      0.992900000000     0.242520000000     0.762940000000    -0.0339955  
C235     C      0.975090000000     0.260260000000     0.779960000000    -0.0337848  
C236     C      0.026620000000     0.235920000000     0.721180000000     0.0501547  
C237     C      0.053050000000     0.246450000000     0.712190000000    -0.0889867  
C238     C      0.070680000000     0.228270000000     0.695430000000     0.0725876  
C239     C      0.036570000000     0.189600000000     0.696000000000     0.0726388  
C240     C      0.018480000000     0.207120000000     0.712890000000    -0.0888847  
C241     C      0.662360000000     0.225780000000     0.073280000000     0.0727038  
C242     C      0.679770000000     0.244120000000     0.056460000000    -0.0888279  
C243     C      0.707100000000     0.234780000000     0.049230000000     0.050008   
C244     C      0.716230000000     0.206850000000     0.059170000000    -0.0887156  
C245     C      0.698250000000     0.189070000000     0.075940000000     0.0722325  
C246     C      0.725950000000     0.254060000000     0.031410000000    -0.00446246 
C247     C      0.715230000000     0.270180000000     0.007520000000    -0.0339075  
C248     C      0.732930000000     0.288280000000     0.990750000000    -0.0337772  
C249     C      0.761780000000     0.290700000000     0.997450000000    -0.00436976 
C250     C      0.772510000000     0.274610000000     0.021360000000    -0.034007   
C251     C      0.754810000000     0.256510000000     0.038140000000    -0.0338542  
C252     C      0.780630000000     0.309700000000     0.979360000000     0.0499074  
C253     C      0.771570000000     0.337590000000     0.969250000000    -0.0886645  
C254     C      0.789250000000     0.354800000000     0.951600000000     0.0722982  
C255     C      0.824830000000     0.317710000000     0.953940000000     0.0722294  
C256     C      0.807710000000     0.299950000000     0.971660000000    -0.0886018  
C257     C      0.820970000000     0.475690000000     0.822160000000     0.0722215  
C258     C      0.803710000000     0.492800000000     0.803970000000    -0.0885714  
C259     C      0.780940000000     0.479510000000     0.789410000000     0.0498646  
C260     C      0.776310000000     0.448920000000     0.793360000000    -0.0886781  
C261     C      0.793950000000     0.432490000000     0.811750000000     0.0722148  
C262     C      0.761890000000     0.497570000000     0.770590000000    -0.0043637  
C263     C      0.772780000000     0.520100000000     0.752450000000    -0.0339458  
C264     C      0.754790000000     0.537490000000     0.735270000000    -0.0338265  
C265     C      0.725470000000     0.532740000000     0.735770000000    -0.0044124  
C266     C      0.714600000000     0.510040000000     0.753720000000    -0.0338445  
C267     C      0.732580000000     0.492680000000     0.770920000000    -0.0338591  
C268     C      0.706270000000     0.551630000000     0.717920000000     0.0499447  
C269     C      0.713770000000     0.560350000000     0.689550000000    -0.0887465  
C270     C      0.695700000000     0.578530000000     0.673310000000     0.072261   
C271     C      0.662790000000     0.579490000000     0.712310000000     0.0726394  
C272     C      0.680370000000     0.561390000000     0.729180000000    -0.0887658  
C273     C      0.072690000000     0.564140000000     0.071880000000     0.0725673  
C274     C      0.054930000000     0.546200000000     0.055030000000    -0.0887534  
C275     C      0.028050000000     0.556450000000     0.047180000000     0.0499427  
C276     C      0.019730000000     0.584880000000     0.056500000000    -0.0886318  
C277     C      0.038010000000     0.602210000000     0.073370000000     0.0721803  
C278     C      0.008780000000     0.537570000000     0.029450000000    -0.00440592 
C279     C      0.006570000000     0.506800000000     0.034860000000    -0.033795   
C280     C      0.988520000000     0.489020000000     0.018140000000    -0.0340829  
C281     C      0.972250000000     0.501580000000     0.995590000000    -0.00433421 
C282     C      0.974410000000     0.532370000000     0.990230000000    -0.0337825  
C283     C      0.992450000000     0.550150000000     0.006960000000    -0.0340026  
C284     C      0.953320000000     0.482630000000     0.977540000000     0.0498667  
C285     C      0.961930000000     0.454280000000     0.968280000000    -0.0885215  
C286     C      0.944140000000     0.437010000000     0.950810000000     0.0721834  
C287     C      0.909310000000     0.474940000000     0.951660000000     0.0722355  
C288     C      0.926570000000     0.492810000000     0.969130000000    -0.0886211  
Cd1      Cd     0.866570000000     0.395620000000     0.885390000000     0.508666   
Cd2      Cd     0.118230000000     0.644580000000     0.134800000000     0.508421   
Cd3      Cd     0.367540000000     0.895970000000     0.885040000000     0.508265   
Cd4      Cd     0.618070000000     0.144510000000     0.135980000000     0.508504   
Cd5      Cd     0.367510000000     0.394690000000     0.385520000000     0.508479   
Cd6      Cd     0.617110000000     0.645490000000     0.634980000000     0.50856    
Cd7      Cd     0.868560000000     0.894390000000     0.385490000000     0.508888   
Cd8      Cd     0.116670000000     0.145610000000     0.635560000000     0.508288   
H1       H      0.933000000000     0.910150000000     0.468430000000     0.0333633  
H2       H      0.965230000000     0.938860000000     0.498490000000     0.0556681  
H3       H      0.957570000000     0.012550000000     0.438380000000     0.0556331  
H4       H      0.925870000000     0.982970000000     0.408530000000     0.033513   
H5       H      0.964650000000     0.981750000000     0.530700000000     0.0410274  
H6       H      0.995070000000     0.012350000000     0.561400000000     0.0410912  
H7       H      0.036800000000     0.046460000000     0.484440000000     0.040844   
H8       H      0.006440000000     0.015750000000     0.453700000000     0.0407355  
H9       H      0.044130000000     0.017620000000     0.577150000000     0.0557433  
H10      H      0.072320000000     0.050010000000     0.608070000000     0.0330863  
H11      H      0.061870000000     0.121650000000     0.547330000000     0.0336784  
H12      H      0.033260000000     0.090070000000     0.516160000000     0.0557456  
H13      H      0.670130000000     0.737280000000     0.611680000000     0.0330734  
H14      H      0.700270000000     0.768420000000     0.581510000000     0.0555733  
H15      H      0.702410000000     0.698930000000     0.516320000000     0.0556641  
H16      H      0.672800000000     0.668230000000     0.547270000000     0.0336518  
H17      H      0.699880000000     0.796280000000     0.535990000000     0.0408232  
H18      H      0.730100000000     0.826930000000     0.504990000000     0.0408567  
H19      H      0.779870000000     0.749330000000     0.483360000000     0.0410679  
H20      H      0.749800000000     0.718740000000     0.514400000000     0.0408716  
H21      H      0.778370000000     0.846300000000     0.502830000000     0.0557307  
H22      H      0.809130000000     0.875960000000     0.471940000000     0.033405   
H23      H      0.809190000000     0.807090000000     0.407270000000     0.0335026  
H24      H      0.778110000000     0.777040000000     0.437400000000     0.0557666  
H25      H      0.276150000000     0.351280000000     0.414380000000     0.0330887  
H26      H      0.245250000000     0.321100000000     0.444580000000     0.0554933  
H27      H      0.316710000000     0.296100000000     0.497650000000     0.0556121  
H28      H      0.347060000000     0.325950000000     0.466600000000     0.0337089  
H29      H      0.225400000000     0.319950000000     0.493320000000     0.040759   
H30      H      0.194660000000     0.290050000000     0.524370000000     0.0408679  
H31      H      0.258180000000     0.221100000000     0.528080000000     0.040888   
H32      H      0.288890000000     0.250910000000     0.496910000000     0.0407732  
H33      H      0.167130000000     0.243950000000     0.523020000000     0.0556871  
H34      H      0.136860000000     0.213880000000     0.554010000000     0.0336964  
H35      H      0.207460000000     0.190800000000     0.607680000000     0.0331912  
H36      H      0.238260000000     0.221040000000     0.577400000000     0.0556382  
H37      H      0.417540000000     0.487440000000     0.411270000000     0.0332022  
H38      H      0.446990000000     0.518740000000     0.441940000000     0.0555847  
H39      H      0.452030000000     0.447570000000     0.505200000000     0.055622   
H40      H      0.422050000000     0.417170000000     0.474290000000     0.0336335  
H41      H      0.495300000000     0.522080000000     0.458760000000     0.0409166  
H42      H      0.526080000000     0.552460000000     0.489290000000     0.0409787  
H43      H      0.482010000000     0.521900000000     0.566280000000     0.0409302  
H44      H      0.451070000000     0.491610000000     0.535740000000     0.0407532  
H45      H      0.524420000000     0.596730000000     0.520450000000     0.055828   
H46      H      0.555830000000     0.626350000000     0.550570000000     0.0336134  
H47      H      0.562520000000     0.554820000000     0.612000000000     0.0329606  
H48      H      0.531420000000     0.524390000000     0.582160000000     0.0557368  
H49      H      0.811670000000     0.916310000000     0.298090000000     0.0334938  
H50      H      0.781030000000     0.946660000000     0.267840000000     0.0556253  
H51      H      0.776870000000     0.012170000000     0.336780000000     0.0556061  
H52      H      0.808080000000     0.981540000000     0.366170000000     0.033557   
H53      H      0.732970000000     0.964120000000     0.264320000000     0.0406978  
H54      H      0.702960000000     0.995040000000     0.233450000000     0.0410266  
H55      H      0.747490000000     0.073630000000     0.262560000000     0.0409829  
H56      H      0.777650000000     0.042720000000     0.293280000000     0.040916   
H57      H      0.706140000000     0.025800000000     0.189280000000     0.0557886  
H58      H      0.676380000000     0.056670000000     0.158530000000     0.033663   
H59      H      0.668980000000     0.121060000000     0.227060000000     0.0330236  
H60      H      0.698400000000     0.090540000000     0.258550000000     0.0557082  
H61      H      0.595240000000     0.229990000000     0.199070000000     0.0336296  
H62      H      0.564710000000     0.260240000000     0.229540000000     0.0557374  
H63      H      0.498320000000     0.195300000000     0.218890000000     0.0556704  
H64      H      0.529280000000     0.165870000000     0.188020000000     0.0329648  
H65      H      0.542200000000     0.260080000000     0.277150000000     0.0408743  
H66      H      0.511400000000     0.291000000000     0.307160000000     0.0409205  
H67      H      0.442040000000     0.273210000000     0.248450000000     0.0409602  
H68      H      0.472860000000     0.242340000000     0.218390000000     0.0409717  
H69      H      0.486600000000     0.338610000000     0.305030000000     0.0558012  
H70      H      0.456000000000     0.369490000000     0.334830000000     0.0330205  
H71      H      0.389290000000     0.305900000000     0.325980000000     0.0330553  
H72      H      0.419490000000     0.274210000000     0.296450000000     0.0557811  
H73      H      0.338760000000     0.945750000000     0.793970000000     0.0334087  
H74      H      0.308170000000     0.975950000000     0.763600000000     0.0554679  
H75      H      0.256010000000     0.994290000000     0.838830000000     0.0555361  
H76      H      0.286600000000     0.963100000000     0.868310000000     0.033094   
H77      H      0.294140000000     0.026090000000     0.754510000000     0.0406277  
H78      H      0.262980000000     0.055650000000     0.723590000000     0.0410706  
H79      H      0.190670000000     0.021460000000     0.770140000000     0.0411572  
H80      H      0.221690000000     0.991380000000     0.800730000000     0.040785   
H81      H      0.226590000000     0.047450000000     0.685060000000     0.0558705  
H82      H      0.195590000000     0.077130000000     0.654410000000     0.0334206  
H83      H      0.148550000000     0.104360000000     0.729600000000     0.0331415  
H84      H      0.179220000000     0.074950000000     0.760880000000     0.0560445  
H85      H      0.527840000000     0.693660000000     0.662620000000     0.0330703  
H86      H      0.497430000000     0.723690000000     0.693410000000     0.0556767  
H87      H      0.568420000000     0.743010000000     0.749330000000     0.0557412  
H88      H      0.598150000000     0.712330000000     0.718300000000     0.0336172  
H89      H      0.489330000000     0.775250000000     0.707270000000     0.040851   
H90      H      0.458480000000     0.804850000000     0.738440000000     0.0409645  
H91      H      0.498610000000     0.767700000000     0.814980000000     0.0409166  
H92      H      0.529490000000     0.738070000000     0.783780000000     0.0409504  
H93      H      0.419400000000     0.798680000000     0.772400000000     0.055719   
H94      H      0.388860000000     0.828800000000     0.803010000000     0.0338367  
H95      H      0.458160000000     0.848730000000     0.859620000000     0.0330107  
H96      H      0.489440000000     0.819180000000     0.829200000000     0.0556736  
H97      H      0.423340000000     0.986450000000     0.905820000000     0.032961   
H98      H      0.453560000000     0.017870000000     0.935690000000     0.0557363  
H99      H      0.456150000000     0.948820000000     0.001270000000     0.0557283  
H100     H      0.425710000000     0.918200000000     0.971070000000     0.0336341  
H101     H      0.502310000000     0.020190000000     0.954210000000     0.0409413  
H102     H      0.532860000000     0.050620000000     0.985070000000     0.0407944  
H103     H      0.483900000000     0.025390000000     0.060790000000     0.0408167  
H104     H      0.453570000000     0.994840000000     0.029980000000     0.0410417  
H105     H      0.533490000000     0.095600000000     0.014300000000     0.0555839  
H106     H      0.564260000000     0.124740000000     0.045660000000     0.0329749  
H107     H      0.561490000000     0.056370000000     0.110760000000     0.0335945  
H108     H      0.531290000000     0.026380000000     0.079760000000     0.0555998  
H109     H      0.925620000000     0.805500000000     0.363350000000     0.0335503  
H110     H      0.956100000000     0.774780000000     0.333170000000     0.0557978  
H111     H      0.957870000000     0.844450000000     0.268200000000     0.0557805  
H112     H      0.927120000000     0.874440000000     0.298780000000     0.0334619  
H113     H      0.004780000000     0.773220000000     0.314730000000     0.0408645  
H114     H      0.034960000000     0.742430000000     0.283890000000     0.0407649  
H115     H      0.985750000000     0.767510000000     0.208290000000     0.0408393  
H116     H      0.955770000000     0.798470000000     0.239110000000     0.041073   
H117     H      0.034480000000     0.697070000000     0.255500000000     0.0555182  
H118     H      0.064610000000     0.666840000000     0.224530000000     0.0330135  
H119     H      0.062460000000     0.733940000000     0.158150000000     0.0337244  
H120     H      0.032910000000     0.765070000000     0.188790000000     0.0556673  
H121     H      0.174240000000     0.733000000000     0.109590000000     0.0337282  
H122     H      0.204760000000     0.762960000000     0.078930000000     0.0556852  
H123     H      0.205420000000     0.692520000000     0.014690000000     0.0555768  
H124     H      0.174290000000     0.663400000000     0.045700000000     0.0330031  
H125     H      0.252560000000     0.764640000000     0.061190000000     0.0408002  
H126     H      0.282860000000     0.795510000000     0.030660000000     0.0409928  
H127     H      0.236460000000     0.767730000000     0.954130000000     0.0409865  
H128     H      0.205940000000     0.736990000000     0.984700000000     0.0408109  
H129     H      0.279690000000     0.841060000000     0.001290000000     0.0557071  
H130     H      0.309620000000     0.872340000000     0.971180000000     0.0336945  
H131     H      0.315180000000     0.803340000000     0.906910000000     0.0330765  
H132     H      0.285500000000     0.771270000000     0.936690000000     0.0557269  
H133     H      0.330590000000     0.433370000000     0.292490000000     0.0332275  
H134     H      0.300360000000     0.464370000000     0.262380000000     0.0559751  
H135     H      0.265680000000     0.504180000000     0.340330000000     0.0558047  
H136     H      0.295910000000     0.472500000000     0.369800000000     0.033297   
H137     H      0.293790000000     0.516380000000     0.248350000000     0.0409273  
H138     H      0.262800000000     0.546530000000     0.217760000000     0.0409314  
H139     H      0.194100000000     0.531260000000     0.277980000000     0.0407813  
H140     H      0.224830000000     0.500260000000     0.308030000000     0.040827   
H141     H      0.237920000000     0.594130000000     0.217970000000     0.0557411  
H142     H      0.207020000000     0.623240000000     0.186760000000     0.0329434  
H143     H      0.140590000000     0.559980000000     0.199410000000     0.0336125  
H144     H      0.171060000000     0.530080000000     0.230340000000     0.0558933  
H145     H      0.949230000000     0.378340000000     0.822300000000     0.0332811  
H146     H      0.979930000000     0.348320000000     0.791760000000     0.0555856  
H147     H      0.920060000000     0.276000000000     0.796850000000     0.055671   
H148     H      0.890270000000     0.306380000000     0.827950000000     0.0336634  
H149     H      0.983700000000     0.326210000000     0.743960000000     0.0406751  
H150     H      0.014960000000     0.295270000000     0.714410000000     0.0409751  
H151     H      0.995470000000     0.219260000000     0.768700000000     0.0411141  
H152     H      0.964480000000     0.250180000000     0.798440000000     0.0409871  
H153     H      0.060290000000     0.268450000000     0.718400000000     0.0559015  
H154     H      0.091020000000     0.237180000000     0.689020000000     0.0329467  
H155     H      0.029430000000     0.167480000000     0.689960000000     0.0331145  
H156     H      0.998080000000     0.198250000000     0.719090000000     0.0558056  
H157     H      0.641410000000     0.233920000000     0.078510000000     0.0335972  
H158     H      0.671960000000     0.265690000000     0.049560000000     0.0557437  
H159     H      0.737040000000     0.198550000000     0.053760000000     0.0556539  
H160     H      0.706110000000     0.167600000000     0.083180000000     0.0330366  
H161     H      0.693200000000     0.268430000000     0.001450000000     0.0408679  
H162     H      0.724070000000     0.299990000000     0.972190000000     0.0410282  
H163     H      0.794560000000     0.276310000000     0.027350000000     0.0407837  
H164     H      0.763660000000     0.244760000000     0.056670000000     0.0408587  
H165     H      0.750960000000     0.346200000000     0.975040000000     0.0556674  
H166     H      0.781380000000     0.376170000000     0.944120000000     0.033233   
H167     H      0.845510000000     0.309210000000     0.948200000000     0.0335382  
H168     H      0.815470000000     0.278420000000     0.978740000000     0.0557316  
H169     H      0.838190000000     0.486890000000     0.833250000000     0.0337148  
H170     H      0.807900000000     0.516430000000     0.801860000000     0.0557885  
H171     H      0.759240000000     0.437620000000     0.782180000000     0.0556447  
H172     H      0.789570000000     0.408910000000     0.814300000000     0.0332738  
H173     H      0.795260000000     0.524250000000     0.751410000000     0.0407049  
H174     H      0.763860000000     0.554980000000     0.721940000000     0.040794   
H175     H      0.692160000000     0.505540000000     0.754380000000     0.0407566  
H176     H      0.723440000000     0.475740000000     0.784860000000     0.0408988  
H177     H      0.733380000000     0.552990000000     0.679790000000     0.0556731  
H178     H      0.702300000000     0.584800000000     0.651470000000     0.0330737  
H179     H      0.643030000000     0.586720000000     0.721920000000     0.0333905  
H180     H      0.673870000000     0.555540000000     0.751130000000     0.055794   
H181     H      0.093310000000     0.555380000000     0.077480000000     0.0335868  
H182     H      0.062380000000     0.524550000000     0.047960000000     0.0558101  
H183     H      0.999030000000     0.593560000000     0.051210000000     0.0556185  
H184     H      0.030690000000     0.623990000000     0.080310000000     0.0330239  
H185     H      0.018510000000     0.496490000000     0.052330000000     0.0409616  
H186     H      0.987040000000     0.465480000000     0.023150000000     0.0408306  
H187     H      0.962530000000     0.542680000000     0.972720000000     0.0410302  
H188     H      0.993970000000     0.573690000000     0.001930000000     0.0409068  
H189     H      0.982550000000     0.445640000000     0.973990000000     0.0556616  
H190     H      0.951720000000     0.415330000000     0.943880000000     0.033485   
H191     H      0.888810000000     0.483680000000     0.945540000000     0.033724   
H192     H      0.918890000000     0.514390000000     0.976140000000     0.0557453  
N1       N      0.927040000000     0.944510000000     0.436390000000    -0.180204   
N2       N      0.069050000000     0.088150000000     0.579980000000    -0.180209   
N3       N      0.669350000000     0.700520000000     0.581700000000    -0.180192   
N4       N      0.811480000000     0.843610000000     0.437470000000    -0.180143   
N5       N      0.313790000000     0.340800000000     0.438310000000    -0.179993   
N6       N      0.169970000000     0.200130000000     0.583020000000    -0.179914   
N7       N      0.417740000000     0.450060000000     0.440520000000    -0.180094   
N8       N      0.561470000000     0.592720000000     0.583410000000    -0.180262   
N9       N      0.812170000000     0.946770000000     0.334250000000    -0.179948   
N10      N      0.670540000000     0.091070000000     0.190560000000    -0.180127   
N11      N      0.564450000000     0.195810000000     0.191300000000    -0.180236   
N12      N      0.420470000000     0.339930000000     0.332560000000    -0.180788   
N13      N      0.314850000000     0.952160000000     0.833280000000    -0.180408   
N14      N      0.169870000000     0.092900000000     0.689790000000    -0.180103   
N15      N      0.565140000000     0.700770000000     0.688260000000    -0.180146   
N16      N      0.421310000000     0.841000000000     0.833450000000    -0.179991   
N17      N      0.422270000000     0.950140000000     0.936320000000    -0.180084   
N18      N      0.565030000000     0.092710000000     0.080470000000    -0.180223   
N19      N      0.924110000000     0.842120000000     0.333210000000    -0.17994    
N20      N      0.065670000000     0.698180000000     0.189120000000    -0.180065   
N21      N      0.172070000000     0.696050000000     0.079880000000    -0.180149   
N22      N      0.314580000000     0.840100000000     0.936900000000    -0.180247   
N23      N      0.315400000000     0.450650000000     0.333300000000    -0.180123   
N24      N      0.171620000000     0.593700000000     0.190790000000    -0.180259   
N25      N      0.917650000000     0.344470000000     0.827480000000    -0.180064   
N26      N      0.062460000000     0.200100000000     0.687400000000    -0.180736   
N27      N      0.671560000000     0.198520000000     0.082980000000    -0.180305   
N28      N      0.815550000000     0.344790000000     0.943810000000    -0.180205   
N29      N      0.815970000000     0.445830000000     0.826180000000    -0.179995   
N30      N      0.670470000000     0.588100000000     0.684660000000    -0.180406   
N31      N      0.064230000000     0.591860000000     0.081060000000    -0.180242   
N32      N      0.918120000000     0.447360000000     0.942420000000    -0.179882   
O1       O      0.853020000000     0.441130000000     0.858550000000    -0.247532   
O2       O      0.856390000000     0.352730000000     0.917510000000    -0.249137   
O3       O      0.877330000000     0.439470000000     0.916000000000    -0.247253   
O4       O      0.907390000000     0.387590000000     0.852850000000    -0.250015   
O5       O      0.878410000000     0.350970000000     0.856590000000    -0.247954   
O6       O      0.908900000000     0.405140000000     0.915280000000    -0.249355   
O7       O      0.828130000000     0.402170000000     0.849640000000    -0.250477   
O8       O      0.824190000000     0.386290000000     0.915410000000    -0.251148   
O9       O      0.129330000000     0.602280000000     0.167280000000    -0.246807   
O10      O      0.089880000000     0.689070000000     0.146330000000    -0.246452   
O11      O      0.105990000000     0.600100000000     0.105670000000    -0.247898   
O12      O      0.145850000000     0.653880000000     0.089870000000    -0.25147    
O13      O      0.146620000000     0.688600000000     0.122190000000    -0.246683   
O14      O      0.074530000000     0.634490000000     0.107190000000    -0.252517   
O15      O      0.162640000000     0.634090000000     0.161000000000    -0.25227    
O16      O      0.091730000000     0.655730000000     0.179950000000    -0.251385   
O17      O      0.397110000000     0.907000000000     0.927790000000    -0.247209   
O18      O      0.353770000000     0.922030000000     0.839790000000    -0.24889    
O19      O      0.338170000000     0.884110000000     0.927950000000    -0.247689   
O20      O      0.412850000000     0.871960000000     0.872760000000    -0.251301   
O21      O      0.378110000000     0.861970000000     0.844240000000    -0.244897   
O22      O      0.341520000000     0.849400000000     0.895890000000    -0.251387   
O23      O      0.395360000000     0.941400000000     0.895140000000    -0.251729   
O24      O      0.326670000000     0.929160000000     0.876690000000    -0.251941   
O25      O      0.573610000000     0.155000000000     0.162110000000    -0.252066   
O26      O      0.647600000000     0.100740000000     0.147120000000    -0.246698   
O27      O      0.629590000000     0.189010000000     0.106710000000    -0.247772   
O28      O      0.591560000000     0.134650000000     0.090470000000    -0.251559   
O29      O      0.589440000000     0.100580000000     0.123370000000    -0.247308   
O30      O      0.662140000000     0.155840000000     0.109390000000    -0.252033   
O31      O      0.606750000000     0.187100000000     0.167880000000    -0.247185   
O32      O      0.643410000000     0.132820000000     0.181690000000    -0.251505   
O33      O      0.378290000000     0.350210000000     0.355630000000    -0.252375   
O34      O      0.357360000000     0.359770000000     0.425730000000    -0.246193   
O35      O      0.349140000000     0.414000000000     0.338910000000    -0.251046   
O36      O      0.392510000000     0.441230000000     0.398280000000    -0.249515   
O37      O      0.394370000000     0.406220000000     0.430200000000    -0.247194   
O38      O      0.331890000000     0.433850000000     0.377790000000    -0.247409   
O39      O      0.411740000000     0.382120000000     0.359890000000    -0.253187   
O40      O      0.321680000000     0.373120000000     0.399950000000    -0.249862   
O41      O      0.629700000000     0.615430000000     0.678260000000    -0.249018   
O42      O      0.645280000000     0.656950000000     0.591270000000    -0.247391   
O43      O      0.607900000000     0.679220000000     0.676560000000    -0.246254   
O44      O      0.589960000000     0.599920000000     0.623710000000    -0.251511   
O45      O      0.586180000000     0.635900000000     0.592940000000    -0.247044   
O46      O      0.572540000000     0.669990000000     0.648630000000    -0.25178    
O47      O      0.659850000000     0.615210000000     0.643270000000    -0.252333   
O48      O      0.643400000000     0.691680000000     0.623500000000    -0.251063   
O49      O      0.897120000000     0.849870000000     0.374470000000    -0.248141   
O50      O      0.897680000000     0.938560000000     0.396600000000    -0.249073   
O51      O      0.838360000000     0.850940000000     0.396060000000    -0.24915    
O52      O      0.839520000000     0.904980000000     0.342020000000    -0.248954   
O53      O      0.838280000000     0.938050000000     0.375940000000    -0.248315   
O54      O      0.838560000000     0.885380000000     0.428640000000    -0.249949   
O55      O      0.898360000000     0.884770000000     0.342350000000    -0.248912   
O56      O      0.900900000000     0.902230000000     0.426960000000    -0.25011    
O57      O      0.132920000000     0.125620000000     0.682760000000    -0.250929   
O58      O      0.126690000000     0.179990000000     0.594880000000    -0.245773   
O59      O      0.104150000000     0.191280000000     0.662830000000    -0.252787   
O60      O      0.094860000000     0.097500000000     0.621750000000    -0.250715   
O61      O      0.089360000000     0.133400000000     0.591310000000    -0.247649   
O62      O      0.072870000000     0.156710000000     0.662590000000    -0.252587   
O63      O      0.155500000000     0.110450000000     0.644790000000    -0.246492   
O64      O      0.162100000000     0.168500000000     0.621920000000    -0.248351   


