data_structure

_audit_creation_method RASPA-1.0
_audit_creation_date 2023-6-5
_audit_author_name 'Poobodin Mano'

_cell_length_a    56.8146
_cell_length_b    56.6542
_cell_length_c    31.7657
_cell_angle_alpha 90.0314
_cell_angle_beta  89.9122
_cell_angle_gamma 90
_cell_volume      102247

_symmetry_cell_setting          triclinic
_symmetry_space_group_name_Hall 'P 1'
_symmetry_space_group_name_H-M  'P 1'
_symmetry_Int_Tables_number     1

_symmetry_equiv_pos_as_xyz 'x,y,z'

loop_
_atom_site_label
_atom_site_type_symbol
_atom_site_fract_x
_atom_site_fract_y
_atom_site_fract_z
_atom_site_charge
C1       C      0.388000000000     0.326710000000     0.974780000000     0.37362    
C2       C      0.312840000000     0.313570000000     0.045450000000     0.349522   
C3       C      0.333060000000     0.384490000000     0.978170000000     0.347133   
C4       C      0.317800000000     0.312930000000     0.898520000000     0.371483   
C5       C      0.329860000000     0.634160000000     0.967760000000     0.371359   
C6       C      0.310970000000     0.709010000000     0.038010000000     0.3469     
C7       C      0.383400000000     0.691320000000     0.966240000000     0.373328   
C8       C      0.308820000000     0.705680000000     0.895880000000     0.348463   
C9       C      0.710690000000     0.316010000000     0.895170000000     0.372104   
C10      C      0.636760000000     0.329920000000     0.975560000000     0.347508   
C11      C      0.705970000000     0.312860000000     0.042340000000     0.37217    
C12      C      0.693940000000     0.386330000000     0.965260000000     0.373053   
C13      C      0.699350000000     0.708190000000     0.892710000000     0.372477   
C14      C      0.690170000000     0.635140000000     0.976190000000     0.348424   
C15      C      0.705270000000     0.703050000000     0.043370000000     0.3707     
C16      C      0.632000000000     0.692410000000     0.962320000000     0.345729   
C17      C      0.816390000000     0.207320000000     0.541050000000     0.348523   
C18      C      0.826770000000     0.133590000000     0.459370000000     0.3741     
C19      C      0.810430000000     0.204670000000     0.396670000000     0.348755   
C20      C      0.885750000000     0.187870000000     0.469650000000     0.375751   
C21      C      0.807720000000     0.813710000000     0.538260000000     0.348933   
C22      C      0.883280000000     0.829420000000     0.467770000000     0.37202    
C23      C      0.814740000000     0.809600000000     0.395000000000     0.346859   
C24      C      0.824540000000     0.884900000000     0.470040000000     0.345952   
C25      C      0.205800000000     0.814060000000     0.396200000000     0.371777   
C26      C      0.132230000000     0.832200000000     0.468620000000     0.349744   
C27      C      0.203680000000     0.810620000000     0.538510000000     0.371676   
C28      C      0.188550000000     0.886430000000     0.472240000000     0.371493   
C29      C      0.202600000000     0.208730000000     0.398650000000     0.370418   
C30      C      0.192080000000     0.135880000000     0.483110000000     0.345628   
C31      C      0.208090000000     0.206060000000     0.547000000000     0.350011   
C32      C      0.134370000000     0.190510000000     0.464630000000     0.348359   
C33      C      0.203700000000     0.945790000000     0.510200000000    -0.213971   
C34      C      0.210420000000     0.100370000000     0.460310000000     0.0741922  
C35      C      0.180220000000     0.099000000000     0.511830000000     0.0741287  
C36      C      0.211970000000     0.075760000000     0.460260000000    -0.0864952  
C37      C      0.200460000000     0.024270000000     0.445800000000    -0.036816   
C38      C      0.199880000000     0.999640000000     0.443880000000    -0.0216046  
C39      C      0.197290000000     0.036100000000     0.484340000000     0.00143939 
C40      C      0.181180000000     0.074360000000     0.512350000000    -0.0864975  
C41      C      0.195940000000     0.986170000000     0.480390000000    -0.0232861  
C42      C      0.183580000000     0.948820000000     0.443870000000    -0.121745   
C43      C      0.193020000000     0.997990000000     0.519010000000    -0.0208905  
C44      C      0.182040000000     0.924250000000     0.442430000000     0.096711   
C45      C      0.201730000000     0.921220000000     0.508020000000     0.416267   
C46      C      0.193760000000     0.022630000000     0.520980000000    -0.0363635  
C47      C      0.196990000000     0.062380000000     0.485990000000     0.0504092  
C48      C      0.194480000000     0.959950000000     0.478060000000     0.109889   
C49      C      0.944410000000     0.827710000000     0.505040000000    -0.214573   
C50      C      0.096330000000     0.828060000000     0.431040000000     0.0786801  
C51      C      0.095710000000     0.831960000000     0.505360000000     0.079077   
C52      C      0.071790000000     0.826820000000     0.430050000000    -0.0849696  
C53      C      0.019990000000     0.839620000000     0.436140000000    -0.036596   
C54      C      0.995400000000     0.839090000000     0.435940000000    -0.0206089  
C55      C      0.032740000000     0.827290000000     0.466990000000     0.00271032 
C56      C      0.071150000000     0.830710000000     0.505530000000    -0.0846015  
C57      C      0.982970000000     0.826180000000     0.466540000000    -0.0233819  
C58      C      0.943940000000     0.825150000000     0.429470000000    -0.121877   
C59      C      0.995750000000     0.813680000000     0.497180000000    -0.0196592  
C60      C      0.919380000000     0.825970000000     0.430520000000     0.0968115  
C61      C      0.919840000000     0.828480000000     0.505100000000     0.416683   
C62      C      0.020340000000     0.814260000000     0.497440000000    -0.0355529  
C63      C      0.058880000000     0.828200000000     0.467560000000     0.0525195  
C64      C      0.956800000000     0.826200000000     0.467000000000     0.110927   
C65      C      0.834300000000     0.071270000000     0.430310000000    -0.213836   
C66      C      0.834090000000     0.922660000000     0.497740000000     0.0748277  
C67      C      0.806890000000     0.919440000000     0.441470000000     0.0745869  
C68      C      0.832270000000     0.947220000000     0.496900000000    -0.085853   
C69      C      0.815640000000     0.998080000000     0.501620000000    -0.0366321  
C70      C      0.815820000000     0.022700000000     0.499320000000    -0.0207642  
C71      C      0.816470000000     0.984350000000     0.464790000000     0.00157045 
C72      C      0.804740000000     0.943990000000     0.439620000000    -0.0866598  
C73      C      0.816920000000     0.034170000000     0.460120000000    -0.0235447  
C74      C      0.804820000000     0.074520000000     0.484440000000    -0.121957   
C75      C      0.817320000000     0.020440000000     0.423240000000    -0.0207709  
C76      C      0.807520000000     0.099010000000     0.483650000000     0.0985861  
C77      C      0.836680000000     0.095830000000     0.430370000000     0.417838   
C78      C      0.817030000000     0.995800000000     0.425550000000    -0.0361424  
C79      C      0.817650000000     0.958200000000     0.467330000000     0.0508946  
C80      C      0.818490000000     0.060310000000     0.457930000000     0.111219   
C81      C      0.947290000000     0.182130000000     0.503440000000    -0.21414    
C82      C      0.098500000000     0.210690000000     0.478930000000     0.0770234  
C83      C      0.097830000000     0.173550000000     0.444490000000     0.0761139  
C84      C      0.073920000000     0.211530000000     0.478890000000    -0.0857841  
C85      C      0.021960000000     0.212770000000     0.452700000000    -0.0361989  
C86      C      0.997360000000     0.212500000000     0.454250000000    -0.0205968  
C87      C      0.034930000000     0.192600000000     0.463790000000     0.00167782 
C88      C      0.073260000000     0.173690000000     0.444330000000    -0.0869702  
C89      C      0.985280000000     0.192150000000     0.467430000000    -0.0232976  
C90      C      0.945950000000     0.200390000000     0.435140000000    -0.12152    
C91      C      0.998270000000     0.172050000000     0.478850000000    -0.020235   
C92      C      0.921430000000     0.199010000000     0.436240000000     0.100417   
C93      C      0.922710000000     0.181230000000     0.503850000000     0.419032   
C94      C      0.022830000000     0.172240000000     0.476850000000    -0.035711   
C95      C      0.061020000000     0.192710000000     0.462030000000     0.0519292  
C96      C      0.959180000000     0.191700000000     0.468810000000     0.11233    
C97      C      0.718090000000     0.717450000000     0.783270000000    -0.214415   
C98      C      0.773900000000     0.810840000000     0.582290000000     0.0753805  
C99      C      0.807170000000     0.786700000000     0.595380000000     0.0769941  
C100     C      0.762020000000     0.800780000000     0.616440000000    -0.0861418  
C101     C      0.746570000000     0.785870000000     0.704240000000    -0.0364257  
C102     C      0.735550000000     0.775530000000     0.739040000000    -0.0211117  
C103     C      0.760740000000     0.772270000000     0.677160000000     0.00199083 
C104     C      0.795890000000     0.776370000000     0.629790000000    -0.0854493  
C105     C      0.738460000000     0.751360000000     0.747660000000    -0.0231412  
C106     C      0.726150000000     0.752420000000     0.823690000000    -0.12143    
C107     C      0.752490000000     0.737750000000     0.720380000000    -0.0203533  
C108     C      0.716400000000     0.741450000000     0.859010000000     0.0969429  
C109     C      0.708580000000     0.706880000000     0.819200000000     0.416525   
C110     C      0.763410000000     0.748050000000     0.685530000000    -0.0358171  
C111     C      0.772990000000     0.783290000000     0.640690000000     0.0513836  
C112     C      0.727280000000     0.740360000000     0.785240000000     0.110524   
C113     C      0.714870000000     0.730130000000     0.147060000000    -0.214244   
C114     C      0.802540000000     0.809920000000     0.323450000000     0.0748097  
C115     C      0.799170000000     0.774820000000     0.363620000000     0.0745524  
C116     C      0.792590000000     0.798720000000     0.288590000000    -0.0866013  
C117     C      0.782540000000     0.766930000000     0.213730000000    -0.0367677  
C118     C      0.771430000000     0.756280000000     0.179390000000    -0.0212927  
C119     C      0.774270000000     0.763120000000     0.254910000000     0.00143184 
C120     C      0.789120000000     0.763080000000     0.329380000000    -0.0864339  
C121     C      0.751740000000     0.741620000000     0.185390000000    -0.023474   
C122     C      0.752250000000     0.721730000000     0.114740000000    -0.121759   
C123     C      0.743620000000     0.737610000000     0.226600000000    -0.0208104  
C124     C      0.740430000000     0.712300000000     0.080090000000     0.0967174  
C125     C      0.703530000000     0.720620000000     0.111910000000     0.416285   
C126     C      0.754770000000     0.748210000000     0.260960000000    -0.0360539  
C127     C      0.785590000000     0.775050000000     0.291320000000     0.0508109  
C128     C      0.739490000000     0.730910000000     0.148720000000     0.110305   
C129     C      0.756490000000     0.290910000000     0.826770000000    -0.21375    
C130     C      0.804280000000     0.242420000000     0.576000000000     0.0760931  
C131     C      0.800440000000     0.205420000000     0.610170000000     0.0769791  
C132     C      0.794430000000     0.253900000000     0.610740000000    -0.0860906  
C133     C      0.760040000000     0.271010000000     0.677450000000    -0.0364382  
C134     C      0.749490000000     0.281850000000     0.712210000000    -0.0209659  
C135     C      0.776420000000     0.252660000000     0.682980000000     0.00189578 
C136     C      0.790520000000     0.216320000000     0.645430000000    -0.0858467  
C137     C      0.755060000000     0.274610000000     0.753330000000    -0.0231255  
C138     C      0.719610000000     0.291510000000     0.789710000000    -0.121902   
C139     C      0.771540000000     0.256350000000     0.758860000000    -0.0202114  
C140     C      0.709040000000     0.301700000000     0.825020000000     0.0975611  
C141     C      0.745420000000     0.301110000000     0.861630000000     0.417625   
C142     C      0.782080000000     0.245520000000     0.724110000000    -0.0354357  
C143     C      0.787320000000     0.240840000000     0.645990000000     0.0518024  
C144     C      0.743600000000     0.285880000000     0.790330000000     0.111118   
C145     C      0.743690000000     0.300570000000     0.133420000000    -0.213228   
C146     C      0.778780000000     0.204930000000     0.347630000000     0.076018   
C147     C      0.807850000000     0.234950000000     0.345260000000     0.0766402  
C148     C      0.767040000000     0.215110000000     0.313520000000    -0.0863354  
C149     C      0.755010000000     0.233170000000     0.225450000000    -0.0359234  
C150     C      0.744720000000     0.243900000000     0.190350000000    -0.0203705  
C151     C      0.763770000000     0.246940000000     0.258750000000     0.00193288 
C152     C      0.796530000000     0.245620000000     0.311310000000    -0.0862667  
C153     C      0.742950000000     0.268620000000     0.187860000000    -0.0226176  
C154     C      0.713440000000     0.270970000000     0.129090000000    -0.121088   
C155     C      0.751200000000     0.282310000000     0.221680000000    -0.0200302  
C156     C      0.704650000000     0.282180000000     0.093230000000     0.0995732  
C157     C      0.734520000000     0.311370000000     0.097540000000     0.422719   
C158     C      0.761510000000     0.271610000000     0.256660000000    -0.0354869  
C159     C      0.775860000000     0.235750000000     0.295030000000     0.0519768  
C160     C      0.733170000000     0.280180000000     0.149720000000     0.112699   
C161     C      0.708210000000     0.446860000000     0.997840000000    -0.213658   
C162     C      0.676010000000     0.597450000000     0.996840000000     0.0768922  
C163     C      0.711620000000     0.600480000000     0.958140000000     0.0776657  
C164     C      0.677320000000     0.572870000000     0.995690000000    -0.0865379  
C165     C      0.676830000000     0.523030000000     0.960040000000    -0.0360494  
C166     C      0.677450000000     0.498450000000     0.957120000000    -0.0205593  
C167     C      0.697030000000     0.535740000000     0.971720000000     0.00203301 
C168     C      0.713620000000     0.575900000000     0.956810000000    -0.0854442  
C169     C      0.698230000000     0.486040000000     0.966220000000    -0.0233524  
C170     C      0.688190000000     0.447730000000     0.931180000000    -0.122302   
C171     C      0.718480000000     0.498740000000     0.977760000000    -0.0198797  
C172     C      0.687420000000     0.423110000000     0.931500000000     0.0991517  
C173     C      0.706940000000     0.422230000000     0.997510000000     0.4196     
C174     C      0.717930000000     0.523390000000     0.980200000000    -0.035356   
C175     C      0.696120000000     0.561820000000     0.975070000000     0.0524776  
C176     C      0.698460000000     0.459880000000     0.964800000000     0.112439   
C177     C      0.212950000000     0.768380000000     0.624720000000    -0.212259   
C178     C      0.306800000000     0.735440000000     0.843380000000     0.0787272  
C179     C      0.278440000000     0.704730000000     0.844380000000     0.078418   
C180     C      0.296400000000     0.745200000000     0.807640000000    -0.0846157  
C181     C      0.279610000000     0.752730000000     0.718040000000    -0.0355723  
C182     C      0.269360000000     0.762840000000     0.682420000000    -0.0197783  
C183     C      0.265540000000     0.744610000000     0.751440000000     0.0029507  
C184     C      0.267500000000     0.714120000000     0.808730000000    -0.0846814  
C185     C      0.244780000000     0.765200000000     0.679400000000    -0.022044   
C186     C      0.244570000000     0.796590000000     0.623720000000    -0.119679   
C187     C      0.230680000000     0.756790000000     0.712620000000    -0.0195004  
C188     C      0.234200000000     0.807450000000     0.588990000000     0.100302   
C189     C      0.202920000000     0.779700000000     0.589950000000     0.419105   
C190     C      0.240950000000     0.746550000000     0.748190000000    -0.0353282  
C191     C      0.276570000000     0.734510000000     0.789760000000     0.0527106  
C192     C      0.233980000000     0.776800000000     0.642110000000     0.111751   
C193     C      0.217960000000     0.773510000000     0.308590000000    -0.214431   
C194     C      0.311060000000     0.739510000000     0.089530000000     0.0747071  
C195     C      0.280210000000     0.711330000000     0.088620000000     0.0749441  
C196     C      0.301000000000     0.750680000000     0.124410000000    -0.0861998  
C197     C      0.283340000000     0.762100000000     0.212370000000    -0.036294   
C198     C      0.273070000000     0.772360000000     0.247970000000    -0.0209918  
C199     C      0.269250000000     0.753350000000     0.179490000000     0.00173134 
C200     C      0.269740000000     0.722000000000     0.123560000000    -0.086114   
C201     C      0.248470000000     0.773990000000     0.251620000000    -0.0234496  
C202     C      0.246320000000     0.805030000000     0.307880000000    -0.121776   
C203     C      0.234380000000     0.765440000000     0.218650000000    -0.0206714  
C204     C      0.235480000000     0.814620000000     0.343490000000     0.097446   
C205     C      0.207590000000     0.783420000000     0.344370000000     0.417833   
C206     C      0.244640000000     0.755300000000     0.182970000000    -0.035863   
C207     C      0.280110000000     0.741930000000     0.141990000000     0.0510136  
C208     C      0.237480000000     0.784320000000     0.289850000000     0.111291   
C209     C      0.443120000000     0.705220000000     0.929440000000    -0.214128   
C210     C      0.597020000000     0.713170000000     0.980740000000     0.0769684  
C211     C      0.594800000000     0.678440000000     0.939270000000     0.0769516  
C212     C      0.572480000000     0.715190000000     0.980580000000    -0.0845224  
C213     C      0.520490000000     0.705840000000     0.997070000000    -0.0365982  
C214     C      0.495890000000     0.705700000000     0.998180000000    -0.0207597  
C215     C      0.532630000000     0.699540000000     0.960120000000     0.00250714 
C216     C      0.570300000000     0.679890000000     0.938530000000    -0.0855756  
C217     C      0.482830000000     0.699230000000     0.962400000000    -0.023139   
C218     C      0.445040000000     0.689200000000     0.999440000000    -0.121605   
C219     C      0.495000000000     0.693340000000     0.925260000000    -0.0199295  
C220     C      0.420520000000     0.687360000000     0.999680000000     0.0980208  
C221     C      0.418630000000     0.703080000000     0.930540000000     0.418645   
C222     C      0.519570000000     0.693540000000     0.924110000000    -0.0359467  
C223     C      0.558790000000     0.698340000000     0.959530000000     0.0516298  
C224     C      0.456680000000     0.698060000000     0.963930000000     0.111379   
C225     C      0.288040000000     0.306220000000     0.796590000000    -0.214075   
C226     C      0.243070000000     0.218610000000     0.581420000000     0.0760687  
C227     C      0.206090000000     0.223480000000     0.615020000000     0.0762395  
C228     C      0.254490000000     0.229060000000     0.615600000000    -0.0861078  
C229     C      0.274540000000     0.239600000000     0.702360000000    -0.0367972  
C230     C      0.285560000000     0.250360000000     0.736700000000    -0.0212084  
C231     C      0.253200000000     0.248510000000     0.686620000000     0.00179841 
C232     C      0.216930000000     0.234050000000     0.649680000000    -0.0861497  
C233     C      0.275530000000     0.270310000000     0.756010000000    -0.0234948  
C234     C      0.297010000000     0.267880000000     0.824800000000    -0.122073   
C235     C      0.254240000000     0.279270000000     0.740140000000    -0.0204004  
C236     C      0.307330000000     0.278760000000     0.859630000000     0.096673   
C237     C      0.298540000000     0.316600000000     0.831810000000     0.416142   
C238     C      0.243200000000     0.268480000000     0.705890000000    -0.0357716  
C239     C      0.241410000000     0.237030000000     0.650230000000     0.0515399  
C240     C      0.287080000000     0.281610000000     0.792830000000     0.110469   
C241     C      0.218420000000     0.253840000000     0.320420000000    -0.213597   
C242     C      0.304820000000     0.280500000000     0.089070000000     0.0776752  
C243     C      0.286540000000     0.317250000000     0.103500000000     0.0765964  
C244     C      0.293560000000     0.270250000000     0.123580000000    -0.0855547  
C245     C      0.278940000000     0.257090000000     0.211960000000    -0.0364415  
C246     C      0.267870000000     0.246680000000     0.246540000000    -0.02092    
C247     C      0.266770000000     0.273160000000     0.186230000000     0.00211728 
C248     C      0.275020000000     0.307560000000     0.138360000000    -0.085408   
C249     C      0.244370000000     0.252120000000     0.256380000000    -0.0235101  
C250     C      0.235860000000     0.216700000000     0.301020000000    -0.122236   
C251     C      0.232240000000     0.268400000000     0.231030000000    -0.0205405  
C252     C      0.225350000000     0.206350000000     0.336160000000     0.0968237  
C253     C      0.208200000000     0.242980000000     0.355520000000     0.415692   
C254     C      0.243310000000     0.278780000000     0.196290000000    -0.0360172  
C255     C      0.278530000000     0.283800000000     0.148920000000     0.0517292  
C256     C      0.232640000000     0.240750000000     0.292950000000     0.110362   
C257     C      0.448150000000     0.316750000000     0.013060000000    -0.214346   
C258     C      0.601880000000     0.307990000000     0.961890000000     0.0748649  
C259     C      0.599450000000     0.345410000000     0.995060000000     0.0749429  
C260     C      0.577370000000     0.305850000000     0.962610000000    -0.0863683  
C261     C      0.525340000000     0.313130000000     0.944690000000    -0.0366866  
C262     C      0.500740000000     0.312530000000     0.943990000000    -0.0215229  
C263     C      0.537390000000     0.322470000000     0.979560000000     0.00132786 
C264     C      0.574930000000     0.343890000000     0.996170000000    -0.086372   
C265     C      0.487590000000     0.321310000000     0.978120000000    -0.0234663  
C266     C      0.449400000000     0.327180000000     0.939720000000    -0.121523   
C267     C      0.499660000000     0.330370000000     0.013210000000    -0.0206915  
C268     C      0.424850000000     0.328360000000     0.939590000000     0.0970793  
C269     C      0.423600000000     0.318170000000     0.012000000000     0.41651    
C270     C      0.524240000000     0.330900000000     0.013950000000    -0.0360643  
C271     C      0.563540000000     0.324000000000     0.979650000000     0.0508001  
C272     C      0.461400000000     0.321550000000     0.976860000000     0.110082   
C273     C      0.332440000000     0.572130000000     0.934130000000    -0.213552   
C274     C      0.349860000000     0.421900000000     0.993620000000     0.076615   
C275     C      0.311520000000     0.419690000000     0.964530000000     0.0778754  
C276     C      0.348840000000     0.446520000000     0.993550000000    -0.0856997  
C277     C      0.336880000000     0.497780000000     0.010540000000    -0.0363912  
C278     C      0.336550000000     0.522420000000     0.008880000000    -0.0206156  
C279     C      0.327660000000     0.484290000000     0.977260000000     0.00231326 
C280     C      0.309900000000     0.444310000000     0.963990000000    -0.0846511  
C281     C      0.326970000000     0.534200000000     0.973910000000    -0.0232173  
C282     C      0.322410000000     0.574030000000     0.007630000000    -0.121622   
C283     C      0.317530000000     0.520710000000     0.940810000000    -0.0198456  
C284     C      0.323270000000     0.598610000000     0.005400000000     0.097602   
C285     C      0.333150000000     0.596790000000     0.932870000000     0.416924   
C286     C      0.317860000000     0.496050000000     0.942480000000    -0.0354851  
C287     C      0.328750000000     0.458060000000     0.978440000000     0.0519455  
C288     C      0.327150000000     0.560430000000     0.971810000000     0.110692   
Cd1      Cd     0.337560000000     0.333770000000     0.974120000000     0.515215   
Cd2      Cd     0.332820000000     0.685200000000     0.967370000000     0.515926   
Cd3      Cd     0.687130000000     0.335760000000     0.968310000000     0.517921   
Cd4      Cd     0.682250000000     0.685320000000     0.968480000000     0.51598    
Cd5      Cd     0.834910000000     0.183750000000     0.467110000000     0.516303   
Cd6      Cd     0.832500000000     0.834430000000     0.467870000000     0.512907   
Cd7      Cd     0.182970000000     0.835640000000     0.468300000000     0.518587   
Cd8      Cd     0.184770000000     0.186090000000     0.474040000000     0.513146   
F1       F      0.211050000000     0.908420000000     0.540090000000    -0.439528   
F2       F      0.908820000000     0.830190000000     0.542990000000    -0.439256   
F3       F      0.852570000000     0.105470000000     0.403350000000    -0.438548   
F4       F      0.912090000000     0.171700000000     0.538240000000    -0.438057   
F5       F      0.700000000000     0.684590000000     0.815340000000    -0.439654   
F6       F      0.679610000000     0.720540000000     0.111920000000    -0.439824   
F7       F      0.758840000000     0.305600000000     0.896100000000    -0.432786   
F8       F      0.745570000000     0.331070000000     0.083180000000    -0.422946   
F9       F      0.716410000000     0.410480000000     0.030720000000    -0.426605   
F10      F      0.182550000000     0.770710000000     0.574330000000    -0.43464    
F11      F      0.188680000000     0.772130000000     0.361180000000    -0.435398   
F12      F      0.406440000000     0.710290000000     0.896080000000    -0.436812   
F13      F      0.298950000000     0.340570000000     0.833770000000    -0.43931    
F14      F      0.194790000000     0.256580000000     0.381400000000    -0.439703   
F15      F      0.411710000000     0.313410000000     0.048180000000    -0.440236   
F16      F      0.338600000000     0.607160000000     0.895530000000    -0.436573   
H1       H      0.167450000000     0.107540000000     0.532150000000     0.0359369  
H2       H      0.173310000000     0.916450000000     0.415450000000     0.0316009  
H3       H      0.191540000000     0.031090000000     0.551290000000     0.046072   
H4       H      0.202540000000     0.991170000000     0.413680000000     0.0410341  
H5       H      0.175860000000     0.959010000000     0.418570000000     0.0674423  
H6       H      0.202930000000     0.034030000000     0.416830000000     0.0450473  
H7       H      0.212640000000     0.953610000000     0.536870000000     0.121414   
H8       H      0.169060000000     0.064820000000     0.532440000000     0.0587239  
H9       H      0.224820000000     0.067330000000     0.440020000000     0.0586468  
H10      H      0.189710000000     0.988230000000     0.547720000000     0.045701   
H11      H      0.222090000000     0.110040000000     0.439500000000     0.0366922  
H12      H      0.104550000000     0.834060000000     0.535360000000     0.0432165  
H13      H      0.910160000000     0.825230000000     0.400680000000     0.0311041  
H14      H      0.029660000000     0.804280000000     0.521230000000     0.0500146  
H15      H      0.986130000000     0.849240000000     0.412310000000     0.0416674  
H16      H      0.952770000000     0.823610000000     0.399350000000     0.0682174  
H17      H      0.029000000000     0.850110000000     0.412620000000     0.0462198  
H18      H      0.953670000000     0.828840000000     0.534760000000     0.122305   
H19      H      0.061840000000     0.832110000000     0.535210000000     0.062576   
H20      H      0.063030000000     0.824570000000     0.400050000000     0.0615245  
H21      H      0.986740000000     0.803260000000     0.520810000000     0.0471034  
H22      H      0.105650000000     0.826910000000     0.401300000000     0.0424596  
H23      H      0.796740000000     0.909050000000     0.419300000000     0.0364744  
H24      H      0.796730000000     0.109280000000     0.505060000000     0.0330863  
H25      H      0.817870000000     0.985720000000     0.396600000000     0.0467222  
H26      H      0.815710000000     0.032760000000     0.528330000000     0.0430795  
H27      H      0.792120000000     0.066790000000     0.505820000000     0.0685001  
H28      H      0.814960000000     0.989780000000     0.532310000000     0.0463875  
H29      H      0.845320000000     0.060880000000     0.409510000000     0.12252    
H30      H      0.793010000000     0.951770000000     0.416630000000     0.0590161  
H31      H      0.842750000000     0.957540000000     0.518620000000     0.0611943  
H32      H      0.817940000000     0.028760000000     0.392560000000     0.0455315  
H33      H      0.845870000000     0.914880000000     0.520700000000     0.0407882  
H34      H      0.106640000000     0.158380000000     0.430820000000     0.0362665  
H35      H      0.911900000000     0.205720000000     0.409220000000     0.0352212  
H36      H      0.032380000000     0.156510000000     0.485970000000     0.0474892  
H37      H      0.987780000000     0.228280000000     0.445500000000     0.043327   
H38      H      0.954500000000     0.207770000000     0.407630000000     0.0707024  
H39      H      0.030840000000     0.228660000000     0.442320000000     0.0479007  
H40      H      0.956970000000     0.175460000000     0.530280000000     0.123188   
H41      H      0.063910000000     0.158960000000     0.430450000000     0.060236   
H42      H      0.065080000000     0.226520000000     0.493020000000     0.0618471  
H43      H      0.989420000000     0.156060000000     0.488790000000     0.0480415  
H44      H      0.107880000000     0.225380000000     0.493000000000     0.0411936  
H45      H      0.824890000000     0.780830000000     0.588130000000     0.0428933  
H46      H      0.716160000000     0.751370000000     0.888220000000     0.0324332  
H47      H      0.773910000000     0.736950000000     0.665050000000     0.0473422  
H48      H      0.724650000000     0.786490000000     0.759090000000     0.0414956  
H49      H      0.733250000000     0.770070000000     0.826880000000     0.0682235  
H50      H      0.744300000000     0.804610000000     0.698990000000     0.0457942  
H51      H      0.718140000000     0.707650000000     0.753980000000     0.121965   
H52      H      0.805240000000     0.763240000000     0.648020000000     0.0616496  
H53      H      0.744240000000     0.806480000000     0.623360000000     0.0591462  
H54      H      0.755390000000     0.719150000000     0.726270000000     0.0466185  
H55      H      0.764800000000     0.824260000000     0.564230000000     0.035911   
H56      H      0.801510000000     0.764960000000     0.392560000000     0.0366069  
H57      H      0.751050000000     0.705450000000     0.054460000000     0.0324611  
H58      H      0.747800000000     0.745070000000     0.292220000000     0.0467557  
H59      H      0.778010000000     0.759920000000     0.148040000000     0.0416861  
H60      H      0.771320000000     0.721670000000     0.114940000000     0.0683268  
H61      H      0.797670000000     0.778110000000     0.208010000000     0.0455457  
H62      H      0.704340000000     0.737280000000     0.172500000000     0.121687   
H63      H      0.784260000000     0.744680000000     0.332700000000     0.0595771  
H64      H      0.789950000000     0.808740000000     0.259950000000     0.0592171  
H65      H      0.728660000000     0.726200000000     0.232350000000     0.0459841  
H66      H      0.807480000000     0.828310000000     0.320130000000     0.0367611  
H67      H      0.802440000000     0.186390000000     0.610890000000     0.0399407  
H68      H      0.690380000000     0.305590000000     0.823220000000     0.0318758  
H69      H      0.794810000000     0.231610000000     0.729500000000     0.0486458  
H70      H      0.737060000000     0.296020000000     0.706850000000     0.0419743  
H71      H      0.708890000000     0.287690000000     0.762380000000     0.0679231  
H72      H      0.755100000000     0.276790000000     0.646190000000     0.0456301  
H73      H      0.775160000000     0.287170000000     0.828300000000     0.124363   
H74      H      0.785020000000     0.205490000000     0.671750000000     0.0605029  
H75      H      0.792590000000     0.272920000000     0.610050000000     0.0604367  
H76      H      0.776050000000     0.250180000000     0.790080000000     0.0473438  
H77      H      0.809520000000     0.253160000000     0.549330000000     0.0371566  
H78      H      0.823850000000     0.243140000000     0.356790000000     0.0389814  
H79      H      0.689280000000     0.274500000000     0.078350000000     0.0324009  
H80      H      0.767680000000     0.282680000000     0.282160000000     0.0478588  
H81      H      0.738760000000     0.232850000000     0.164660000000     0.0431844  
H82      H      0.704620000000     0.255350000000     0.140850000000     0.0685606  
H83      H      0.756700000000     0.214130000000     0.225950000000     0.047253   
H84      H      0.759230000000     0.308030000000     0.147980000000     0.126765   
H85      H      0.804150000000     0.261360000000     0.297560000000     0.061951   
H86      H      0.751000000000     0.207030000000     0.302090000000     0.0595337  
H87      H      0.749670000000     0.301370000000     0.221160000000     0.0484257  
H88      H      0.771370000000     0.189030000000     0.361240000000     0.0371478  
H89      H      0.725230000000     0.610820000000     0.942860000000     0.0414219  
H90      H      0.679100000000     0.414410000000     0.904990000000     0.0323501  
H91      H      0.733720000000     0.532760000000     0.989410000000     0.0486871  
H92      H      0.661530000000     0.489120000000     0.948520000000     0.0426107  
H93      H      0.680700000000     0.457200000000     0.904780000000     0.069672   
H94      H      0.660540000000     0.532120000000     0.952900000000     0.0474091  
H95      H      0.716230000000     0.455680000000     0.024470000000     0.125602   
H96      H      0.728410000000     0.567990000000     0.940500000000     0.0624936  
H97      H      0.663630000000     0.562570000000     0.010750000000     0.0612839  
H98      H      0.734760000000     0.489610000000     0.984730000000     0.0488681  
H99      H      0.661010000000     0.605300000000     0.012710000000     0.0388646  
H100     H      0.271050000000     0.688800000000     0.857940000000     0.0411181  
H101     H      0.243010000000     0.822790000000     0.576020000000     0.0401426  
H102     H      0.229650000000     0.740680000000     0.773610000000     0.0479862  
H103     H      0.280740000000     0.768690000000     0.657110000000     0.0439862  
H104     H      0.260640000000     0.803980000000     0.636460000000     0.0711248  
H105     H      0.298590000000     0.751100000000     0.719290000000     0.0499646  
H106     H      0.204350000000     0.752920000000     0.637590000000     0.123721   
H107     H      0.252280000000     0.705220000000     0.795710000000     0.0628052  
H108     H      0.303770000000     0.761180000000     0.794330000000     0.0624843  
H109     H      0.211720000000     0.758600000000     0.711610000000     0.0475723  
H110     H      0.322140000000     0.744270000000     0.856180000000     0.0449163  
H111     H      0.271670000000     0.695880000000     0.075490000000     0.0376815  
H112     H      0.242780000000     0.830800000000     0.356220000000     0.0329481  
H113     H      0.233250000000     0.749180000000     0.157930000000     0.0468058  
H114     H      0.284380000000     0.778560000000     0.273080000000     0.0425969  
H115     H      0.261300000000     0.814040000000     0.294160000000     0.0685342  
H116     H      0.302330000000     0.760580000000     0.211050000000     0.0460041  
H117     H      0.210820000000     0.757280000000     0.295890000000     0.123559   
H118     H      0.253800000000     0.714370000000     0.136420000000     0.0603534  
H119     H      0.309470000000     0.766230000000     0.137200000000     0.0590275  
H120     H      0.215380000000     0.766790000000     0.220240000000     0.046678   
H121     H      0.327240000000     0.746820000000     0.076900000000     0.0373264  
H122     H      0.602940000000     0.663710000000     0.922990000000     0.0401998  
H123     H      0.412290000000     0.680170000000     0.027690000000     0.0322718  
H124     H      0.528330000000     0.688900000000     0.894970000000     0.0481569  
H125     H      0.487090000000     0.710630000000     0.027150000000     0.0421527  
H126     H      0.454790000000     0.683170000000     0.026660000000     0.0687492  
H127     H      0.529990000000     0.710340000000     0.025490000000     0.047658   
H128     H      0.451380000000     0.712580000000     0.901640000000     0.122998   
H129     H      0.560460000000     0.666270000000     0.922360000000     0.0608634  
H130     H      0.564350000000     0.729930000000     0.996750000000     0.0615153  
H131     H      0.485550000000     0.688040000000     0.897220000000     0.0477163  
H132     H      0.607010000000     0.726460000000     0.997590000000     0.0435307  
H133     H      0.187110000000     0.221530000000     0.615820000000     0.0380363  
H134     H      0.314610000000     0.267390000000     0.883790000000     0.03229    
H135     H      0.226910000000     0.275940000000     0.694250000000     0.0483028  
H136     H      0.302060000000     0.243150000000     0.747910000000     0.0415165  
H137     H      0.296450000000     0.248790000000     0.823410000000     0.0679471  
H138     H      0.282610000000     0.224120000000     0.688480000000     0.0453574  
H139     H      0.280860000000     0.317470000000     0.772220000000     0.122442   
H140     H      0.206170000000     0.239640000000     0.676040000000     0.0601444  
H141     H      0.273420000000     0.231230000000     0.614510000000     0.060126   
H142     H      0.245920000000     0.294470000000     0.754550000000     0.046778   
H143     H      0.253810000000     0.212850000000     0.555100000000     0.0372393  
H144     H      0.283490000000     0.335730000000     0.096520000000     0.0378564  
H145     H      0.228460000000     0.187680000000     0.341220000000     0.0321103  
H146     H      0.233320000000     0.290850000000     0.176850000000     0.0470456  
H147     H      0.277830000000     0.234540000000     0.265910000000     0.0423428  
H148     H      0.246400000000     0.205830000000     0.280190000000     0.0678565  
H149     H      0.297170000000     0.252710000000     0.205670000000     0.0474412  
H150     H      0.215610000000     0.272530000000     0.315350000000     0.122115   
H151     H      0.263750000000     0.318770000000     0.157300000000     0.0607499  
H152     H      0.296490000000     0.251710000000     0.130080000000     0.0600783  
H153     H      0.214040000000     0.272770000000     0.237560000000     0.0461905  
H154     H      0.316320000000     0.269360000000     0.070360000000     0.0407311  
H155     H      0.607520000000     0.361210000000     0.007810000000     0.038295   
H156     H      0.416340000000     0.333120000000     0.910260000000     0.0333473  
H157     H      0.532930000000     0.337940000000     0.041560000000     0.046802   
H158     H      0.492040000000     0.305170000000     0.916670000000     0.0413455  
H159     H      0.458890000000     0.331280000000     0.911050000000     0.0683225  
H160     H      0.534890000000     0.306700000000     0.917470000000     0.0452812  
H161     H      0.456690000000     0.311840000000     0.042230000000     0.121507   
H162     H      0.564990000000     0.358510000000     0.009120000000     0.0597563  
H163     H      0.569350000000     0.290000000000     0.950060000000     0.059004   
H164     H      0.490130000000     0.337530000000     0.039860000000     0.046056   
H165     H      0.611930000000     0.293620000000     0.948250000000     0.0369348  
H166     H      0.296600000000     0.409680000000     0.952950000000     0.0440389  
H167     H      0.319520000000     0.608380000000     0.034010000000     0.0324966  
H168     H      0.310810000000     0.486210000000     0.916120000000     0.0495812  
H169     H      0.344180000000     0.532240000000     0.034730000000     0.0420066  
H170     H      0.317890000000     0.565750000000     0.037290000000     0.0686482  
H171     H      0.344320000000     0.489300000000     0.038010000000     0.0463948  
H172     H      0.336490000000     0.562280000000     0.905800000000     0.123201   
H173     H      0.293910000000     0.452480000000     0.952570000000     0.0622959  
H174     H      0.363940000000     0.456420000000     0.004520000000     0.060649   
H175     H      0.309790000000     0.529210000000     0.913630000000     0.0474559  
H176     H      0.365830000000     0.413700000000     0.005220000000     0.0392301  
N1       N      0.190860000000     0.910520000000     0.474320000000    -0.229098   
N2       N      0.194420000000     0.111850000000     0.485420000000    -0.178961   
N3       N      0.907390000000     0.827830000000     0.467950000000    -0.229334   
N4       N      0.108160000000     0.830710000000     0.468380000000    -0.176804   
N5       N      0.823600000000     0.109600000000     0.457400000000    -0.228528   
N6       N      0.821690000000     0.908910000000     0.469950000000    -0.178622   
N7       N      0.909850000000     0.189410000000     0.470160000000    -0.228385   
N8       N      0.110320000000     0.191710000000     0.462320000000    -0.178358   
N9       N      0.707950000000     0.718760000000     0.857010000000    -0.229373   
N10      N      0.796270000000     0.803790000000     0.571850000000    -0.178469   
N11      N      0.716270000000     0.711890000000     0.078440000000    -0.228901   
N12      N      0.805630000000     0.798110000000     0.360740000000    -0.179042   
N13      N      0.721760000000     0.306380000000     0.860800000000    -0.228777   
N14      N      0.807140000000     0.218370000000     0.575690000000    -0.178551   
N15      N      0.715060000000     0.302230000000     0.077550000000    -0.226984   
N16      N      0.799030000000     0.214790000000     0.363300000000    -0.178819   
N17      N      0.696300000000     0.410430000000     0.964730000000    -0.227674   
N18      N      0.692770000000     0.611120000000     0.977470000000    -0.177998   
N19      N      0.213500000000     0.799190000000     0.572270000000    -0.226971   
N20      N      0.297980000000     0.715280000000     0.861420000000    -0.17694    
N21      N      0.216230000000     0.803980000000     0.361590000000    -0.228604   
N22      N      0.300760000000     0.719960000000     0.071870000000    -0.179069   
N23      N      0.407400000000     0.694010000000     0.965390000000    -0.228683   
N24      N      0.608030000000     0.694810000000     0.960560000000    -0.177056   
N25      N      0.307990000000     0.302910000000     0.863330000000    -0.229193   
N26      N      0.219060000000     0.215950000000     0.581100000000    -0.179081   
N27      N      0.211850000000     0.219380000000     0.363530000000    -0.22899    
N28      N      0.301400000000     0.303820000000     0.079210000000    -0.178233   
N29      N      0.412030000000     0.324240000000     0.975530000000    -0.22921    
N30      N      0.612780000000     0.327700000000     0.977720000000    -0.178837   
N31      N      0.328730000000     0.609960000000     0.968450000000    -0.228758   
N32      N      0.331420000000     0.408610000000     0.978960000000    -0.177148   
O1       O      0.326980000000     0.301760000000     0.022960000000    -0.237176   
O2       O      0.318740000000     0.335040000000     0.903950000000    -0.203759   
O3       O      0.375460000000     0.324440000000     0.007510000000    -0.204237   
O4       O      0.351340000000     0.373780000000     0.990720000000    -0.242477   
O5       O      0.316590000000     0.371550000000     0.964210000000    -0.229481   
O6       O      0.376990000000     0.332010000000     0.941400000000    -0.250412   
O7       O      0.310060000000     0.334940000000     0.034880000000    -0.245411   
O8       O      0.326250000000     0.300570000000     0.928040000000    -0.251788   
O9       O      0.301770000000     0.691150000000     0.020590000000    -0.245468   
O10      O      0.326760000000     0.715110000000     0.912470000000    -0.232633   
O11      O      0.326240000000     0.646470000000     0.000450000000    -0.249571   
O12      O      0.372670000000     0.683510000000     0.998360000000    -0.251326   
O13      O      0.370570000000     0.696230000000     0.934910000000    -0.197989   
O14      O      0.334780000000     0.645650000000     0.934680000000    -0.201662   
O15      O      0.330290000000     0.715980000000     0.022410000000    -0.246138   
O16      O      0.301750000000     0.686700000000     0.912800000000    -0.238358   
O17      O      0.649660000000     0.314350000000     0.958490000000    -0.24183    
O18      O      0.699990000000     0.374000000000     0.996640000000    -0.18824    
O19      O      0.688970000000     0.321000000000     0.895030000000    -0.250378   
O20      O      0.688160000000     0.304730000000     0.023200000000    -0.249722   
O21      O      0.714810000000     0.331450000000     0.026910000000    -0.181202   
O22      O      0.721400000000     0.320320000000     0.929180000000    -0.200448   
O23      O      0.647350000000     0.347910000000     0.989790000000    -0.246175   
O24      O      0.684910000000     0.375060000000     0.934810000000    -0.250367   
O25      O      0.704260000000     0.648300000000     0.956020000000    -0.236257   
O26      O      0.644940000000     0.706660000000     0.982600000000    -0.231394   
O27      O      0.692580000000     0.686920000000     0.893190000000    -0.205113   
O28      O      0.716740000000     0.695090000000     0.012200000000    -0.252008   
O29      O      0.683070000000     0.702580000000     0.039770000000    -0.202598   
O30      O      0.698050000000     0.718980000000     0.927560000000    -0.252788   
O31      O      0.672960000000     0.645440000000     0.993700000000    -0.242895   
O32      O      0.642520000000     0.675400000000     0.944530000000    -0.23912    
O33      O      0.815020000000     0.146440000000     0.484420000000    -0.245017   
O34      O      0.873790000000     0.194030000000     0.437900000000    -0.243363   
O35      O      0.819140000000     0.185170000000     0.539510000000    -0.237116   
O36      O      0.802790000000     0.186240000000     0.414690000000    -0.246943   
O37      O      0.829290000000     0.213210000000     0.411420000000    -0.240017   
O38      O      0.822440000000     0.218590000000     0.508380000000    -0.24831    
O39      O      0.842040000000     0.144210000000     0.437270000000    -0.204491   
O40      O      0.874020000000     0.179960000000     0.500490000000    -0.205763   
O41      O      0.871400000000     0.831440000000     0.501280000000    -0.201929   
O42      O      0.813550000000     0.871560000000     0.444820000000    -0.243265   
O43      O      0.828140000000     0.807140000000     0.527300000000    -0.235729   
O44      O      0.817600000000     0.799400000000     0.430120000000    -0.248348   
O45      O      0.820440000000     0.831220000000     0.393680000000    -0.2421     
O46      O      0.798610000000     0.830000000000     0.516320000000    -0.248825   
O47      O      0.871490000000     0.829390000000     0.433950000000    -0.255197   
O48      O      0.838800000000     0.874730000000     0.494650000000    -0.242438   
O49      O      0.144230000000     0.831020000000     0.435040000000    -0.234611   
O50      O      0.195210000000     0.872970000000     0.501700000000    -0.202481   
O51      O      0.188290000000     0.804800000000     0.414490000000    -0.199501   
O52      O      0.184250000000     0.804360000000     0.522490000000    -0.196659   
O53      O      0.213430000000     0.828360000000     0.521600000000    -0.237865   
O54      O      0.212930000000     0.833380000000     0.411690000000    -0.250655   
O55      O      0.143830000000     0.834940000000     0.502330000000    -0.234597   
O56      O      0.179370000000     0.876230000000     0.440780000000    -0.252661   
O57      O      0.203700000000     0.148140000000     0.456990000000    -0.24099    
O58      O      0.146460000000     0.206090000000     0.483390000000    -0.235402   
O59      O      0.205860000000     0.187040000000     0.406340000000    -0.247746   
O60      O      0.219400000000     0.199210000000     0.514880000000    -0.249112   
O61      O      0.185990000000     0.203440000000     0.545430000000    -0.243606   
O62      O      0.190730000000     0.219930000000     0.425880000000    -0.207255   
O63      O      0.177520000000     0.147090000000     0.505850000000    -0.247908   
O64      O      0.145800000000     0.173310000000     0.449380000000    -0.248053   


