data_structure

_audit_creation_method RASPA-1.0
_audit_creation_date 2023-5-22
_audit_author_name 'Poobodin Mano'

_cell_length_a    45.1002
_cell_length_b    47.9197
_cell_length_c    45.1007
_cell_angle_alpha 90
_cell_angle_beta  90
_cell_angle_gamma 90
_cell_volume      97471.1

_symmetry_cell_setting          triclinic
_symmetry_space_group_name_Hall 'P 1'
_symmetry_space_group_name_H-M  'P 1'
_symmetry_Int_Tables_number     1

_symmetry_equiv_pos_as_xyz 'x,y,z'

loop_
_atom_site_label
_atom_site_type_symbol
_atom_site_fract_x
_atom_site_fract_y
_atom_site_fract_z
_atom_site_charge
C1       C      0.919570000000     0.383590000000     0.916380000000     0.358982   
C2       C      0.845720000000     0.386080000000     0.843970000000     0.347121   
C3       C      0.916400000000     0.311260000000     0.843390000000     0.357946   
C4       C      0.844460000000     0.314030000000     0.916250000000     0.357222   
C5       C      0.093590000000     0.562320000000     0.095800000000     0.348479   
C6       C      0.162920000000     0.563780000000     0.167710000000     0.356283   
C7       C      0.163790000000     0.638100000000     0.094830000000     0.348398   
C8       C      0.092050000000     0.638500000000     0.165830000000     0.356047   
C9       C      0.341640000000     0.814190000000     0.916000000000     0.355875   
C10      C      0.414240000000     0.887820000000     0.911120000000     0.355686   
C11      C      0.410080000000     0.809810000000     0.843560000000     0.345684   
C12      C      0.343240000000     0.888460000000     0.841520000000     0.347119   
C13      C      0.664730000000     0.135790000000     0.090610000000     0.34759    
C14      C      0.593450000000     0.062390000000     0.090150000000     0.346474   
C15      C      0.665110000000     0.060930000000     0.162130000000     0.348619   
C16      C      0.592600000000     0.135000000000     0.162220000000     0.357031   
C17      C      0.343450000000     0.385560000000     0.341290000000     0.347399   
C18      C      0.418110000000     0.314380000000     0.340500000000     0.347772   
C19      C      0.419650000000     0.386760000000     0.411480000000     0.356851   
C20      C      0.343430000000     0.316040000000     0.413110000000     0.357338   
C21      C      0.666960000000     0.564650000000     0.668970000000     0.355943   
C22      C      0.588490000000     0.631410000000     0.668320000000     0.359238   
C23      C      0.665480000000     0.635430000000     0.597470000000     0.359182   
C24      C      0.594940000000     0.562180000000     0.593340000000     0.347947   
C25      C      0.912760000000     0.813180000000     0.344770000000     0.348879   
C26      C      0.839440000000     0.883870000000     0.343230000000     0.359182   
C27      C      0.841250000000     0.812690000000     0.417940000000     0.345696   
C28      C      0.912930000000     0.884480000000     0.418350000000     0.355322   
C29      C      0.092360000000     0.135590000000     0.662320000000     0.347424   
C30      C      0.093110000000     0.063710000000     0.591170000000     0.348642   
C31      C      0.166430000000     0.137180000000     0.589740000000     0.346971   
C32      C      0.168850000000     0.065330000000     0.660360000000     0.35611    
C33      C      0.938490000000     0.927920000000     0.480720000000    -0.161274   
C34      C      0.085380000000     0.036700000000     0.547650000000     0.073676   
C35      C      0.048450000000     0.037960000000     0.585050000000     0.0727373  
C36      C      0.067900000000     0.018890000000     0.530480000000    -0.088022   
C37      C      0.018810000000     0.995120000000     0.491930000000    -0.0364883  
C38      C      0.001040000000     0.977350000000     0.474960000000    -0.0274326  
C39      C      0.021120000000     0.991470000000     0.522780000000    -0.00172107 
C40      C      0.030420000000     0.020110000000     0.568470000000    -0.0880607  
C41      C      0.985190000000     0.955490000000     0.488420000000    -0.0163906  
C42      C      0.975650000000     0.927250000000     0.442540000000    -0.107892   
C43      C      0.987520000000     0.951840000000     0.519270000000    -0.0273245  
C44      C      0.957490000000     0.909760000000     0.425750000000     0.0828521  
C45      C      0.920750000000     0.910250000000     0.463490000000     0.242891   
C46      C      0.005260000000     0.969630000000     0.536250000000    -0.0364814  
C47      C      0.040040000000     0.010370000000     0.540800000000     0.0497412  
C48      C      0.966230000000     0.936640000000     0.470350000000     0.0819958  
C49      C      0.700520000000     0.698980000000     0.567710000000    -0.161606   
C50      C      0.825850000000     0.767050000000     0.431790000000     0.0729056  
C51      C      0.806220000000     0.806480000000     0.456760000000     0.0735659  
C52      C      0.808790000000     0.749190000000     0.449360000000    -0.0877598  
C53      C      0.783010000000     0.716170000000     0.500710000000    -0.0364009  
C54      C      0.765680000000     0.698710000000     0.518490000000    -0.0278171  
C55      C      0.771560000000     0.741550000000     0.490020000000    -0.00161315 
C56      C      0.788910000000     0.789240000000     0.474750000000    -0.0872911  
C57      C      0.736530000000     0.706260000000     0.526080000000    -0.0164886  
C58      C      0.717960000000     0.658910000000     0.540810000000    -0.108198   
C59      C      0.725060000000     0.731600000000     0.515370000000    -0.0273186  
C60      C      0.700250000000     0.641940000000     0.558670000000     0.0842427  
C61      C      0.683170000000     0.681460000000     0.585500000000     0.244326   
C62      C      0.742340000000     0.749020000000     0.497530000000    -0.0360888  
C63      C      0.789990000000     0.760200000000     0.471170000000     0.0496645  
C64      C      0.718140000000     0.687810000000     0.545110000000     0.0826187  
C65      C      0.295570000000     0.291570000000     0.474010000000    -0.161438   
C66      C      0.171550000000     0.167350000000     0.548220000000     0.0729897  
C67      C      0.212620000000     0.159260000000     0.579900000000     0.0727716  
C68      C      0.188570000000     0.185160000000     0.530600000000    -0.0880035  
C69      C      0.234300000000     0.208750000000     0.488110000000    -0.0364001  
C70      C      0.251570000000     0.226550000000     0.470690000000    -0.0274093  
C71      C      0.236770000000     0.209090000000     0.519190000000    -0.00168617 
C72      C      0.230290000000     0.176940000000     0.562730000000    -0.0878663  
C73      C      0.271750000000     0.245130000000     0.483910000000    -0.0164889  
C74      C      0.302920000000     0.254490000000     0.438910000000    -0.108092   
C75      C      0.274230000000     0.245480000000     0.514990000000    -0.0273049  
C76      C      0.320430000000     0.272350000000     0.421880000000     0.0830116  
C77      C      0.313390000000     0.309030000000     0.456600000000     0.243524   
C78      C      0.256940000000     0.227680000000     0.532420000000    -0.0364617  
C79      C      0.218330000000     0.190170000000     0.537730000000     0.0495765  
C80      C      0.290260000000     0.263970000000     0.465360000000     0.0821393  
C81      C      0.461050000000     0.448480000000     0.437110000000    -0.161403   
C82      C      0.573510000000     0.517880000000     0.583120000000     0.0732556  
C83      C      0.567580000000     0.555040000000     0.548910000000     0.0738475  
C84      C      0.556770000000     0.500240000000     0.565030000000    -0.0879326  
C85      C      0.534720000000     0.463840000000     0.514450000000    -0.0364888  
C86      C      0.517400000000     0.446560000000     0.496480000000    -0.027968   
C87      C      0.526780000000     0.491890000000     0.518990000000    -0.00175609 
C88      C      0.550710000000     0.537990000000     0.530310000000    -0.0878456  
C89      C      0.491720000000     0.456920000000     0.482640000000    -0.0164124  
C90      C      0.467330000000     0.410950000000     0.471900000000    -0.107977   
C91      C      0.483810000000     0.484980000000     0.487160000000    -0.0273241  
C92      C      0.449530000000     0.394110000000     0.453990000000     0.0832239  
C93      C      0.443410000000     0.431090000000     0.419450000000     0.243337   
C94      C      0.501140000000     0.502260000000     0.505110000000    -0.0360369  
C95      C      0.545040000000     0.510240000000     0.538300000000     0.0499538  
C96      C      0.473190000000     0.438540000000     0.463630000000     0.0821149  
C97      C      0.775140000000     0.911850000000     0.302530000000    -0.161188   
C98      C      0.712030000000     0.047500000000     0.181440000000     0.0727918  
C99      C      0.669010000000     0.021650000000     0.194120000000     0.0727571  
C100     C      0.729540000000     0.030080000000     0.199040000000    -0.0883712  
C101     C      0.756400000000     0.000480000000     0.252430000000    -0.036428   
C102     C      0.773470000000     0.983020000000     0.270440000000    -0.0273029  
C103     C      0.734750000000     0.989280000000     0.233450000000    -0.00188783 
C104     C      0.685900000000     0.003700000000     0.211750000000    -0.0882676  
C105     C      0.769430000000     0.953910000000     0.269760000000    -0.0163158  
C106     C      0.817700000000     0.940890000000     0.293840000000    -0.10773    
C107     C      0.747810000000     0.942740000000     0.250650000000    -0.0272276  
C108     C      0.834410000000     0.923390000000     0.312060000000     0.0834202  
C109     C      0.792490000000     0.894450000000     0.320470000000     0.243587   
C110     C      0.730610000000     0.960230000000     0.232790000000    -0.0365617  
C111     C      0.716510000000     0.007880000000     0.214470000000     0.0497317  
C112     C      0.787650000000     0.935320000000     0.288920000000     0.0821861  
C113     C      0.534920000000     0.185140000000     0.184670000000    -0.161486   
C114     C      0.460220000000     0.284980000000     0.334890000000     0.0724032  
C115     C      0.427560000000     0.292090000000     0.294380000000     0.0728617  
C116     C      0.477800000000     0.267240000000     0.317720000000    -0.0885427  
C117     C      0.498920000000     0.217660000000     0.280810000000    -0.0366795  
C118     C      0.515910000000     0.199820000000     0.263120000000    -0.0279694  
C119     C      0.488580000000     0.243190000000     0.269530000000    -0.002115   
C120     C      0.444770000000     0.274670000000     0.276510000000    -0.088567   
C121     C      0.523150000000     0.207220000000     0.233810000000    -0.0164094  
C122     C      0.564680000000     0.172880000000     0.226900000000    -0.107853   
C123     C      0.512960000000     0.232910000000     0.222660000000    -0.027535   
C124     C      0.581320000000     0.155150000000     0.208850000000     0.0829824  
C125     C      0.551980000000     0.167240000000     0.167050000000     0.243344   
C126     C      0.495780000000     0.250630000000     0.240270000000    -0.0365482  
C127     C      0.470180000000     0.261950000000     0.288150000000     0.0496369  
C128     C      0.541150000000     0.188200000000     0.214910000000     0.081802   
C129     C      0.209880000000     0.003920000000     0.687450000000    -0.1614     
C130     C      0.298230000000     0.912310000000     0.830960000000     0.0724321  
C131     C      0.340020000000     0.918630000000     0.799770000000     0.0723681  
C132     C      0.281470000000     0.930330000000     0.813320000000    -0.0881694  
C133     C      0.256810000000     0.981100000000     0.781440000000    -0.0366009  
C134     C      0.239750000000     0.998460000000     0.763300000000    -0.0280643  
C135     C      0.276530000000     0.961640000000     0.768970000000    -0.00203265 
C136     C      0.323890000000     0.936730000000     0.781620000000    -0.0882316  
C137     C      0.241970000000     0.996750000000     0.732250000000    -0.0165654  
C138     C      0.218270000000     0.042750000000     0.720110000000    -0.108068   
C139     C      0.261860000000     0.977440000000     0.719790000000    -0.0276232  
C140     C      0.200170000000     0.059170000000     0.702060000000     0.0830821  
C141     C      0.191660000000     0.020800000000     0.669820000000     0.243166   
C142     C      0.278950000000     0.960110000000     0.737930000000    -0.0362503  
C143     C      0.294210000000     0.942750000000     0.788240000000     0.0493763  
C144     C      0.223260000000     0.014740000000     0.712970000000     0.0818921  
C145     C      0.523520000000     0.671890000000     0.692840000000    -0.16169    
C146     C      0.452360000000     0.780660000000     0.837860000000     0.0735371  
C147     C      0.416460000000     0.783150000000     0.799550000000     0.0729488  
C148     C      0.469460000000     0.762210000000     0.821060000000    -0.087215   
C149     C      0.493490000000     0.712440000000     0.787180000000    -0.0362877  
C150     C      0.511160000000     0.694900000000     0.769830000000    -0.0271698  
C151     C      0.478210000000     0.734970000000     0.774270000000    -0.00133459 
C152     C      0.432950000000     0.764660000000     0.782200000000    -0.0876196  
C153     C      0.513850000000     0.699380000000     0.739150000000    -0.0164086  
C154     C      0.561020000000     0.672880000000     0.730680000000    -0.107925   
C155     C      0.498410000000     0.721750000000     0.726190000000    -0.027084   
C156     C      0.579020000000     0.656240000000     0.712770000000     0.0843149  
C157     C      0.542010000000     0.655210000000     0.675300000000     0.244792   
C158     C      0.480860000000     0.739370000000     0.743550000000    -0.0361051  
C159     C      0.459920000000     0.754060000000     0.792780000000     0.0497184  
C160     C      0.532980000000     0.681050000000     0.720730000000     0.082977   
C161     C      0.479990000000     0.924930000000     0.939280000000    -0.161284   
C162     C      0.546190000000     0.044150000000     0.077130000000     0.0730218  
C163     C      0.588950000000     0.029930000000     0.050520000000     0.0728375  
C164     C      0.528290000000     0.027210000000     0.059400000000    -0.088177   
C165     C      0.494260000000     0.002390000000     0.007720000000    -0.0365357  
C166     C      0.476570000000     0.985340000000     0.989850000000    -0.0279093  
C167     C      0.522210000000     0.993190000000     0.017490000000    -0.00190315 
C168     C      0.571700000000     0.012790000000     0.032350000000    -0.0880653  
C169     C      0.486440000000     0.958710000000     0.981270000000    -0.0165185  
C170     C      0.437080000000     0.938420000000     0.967430000000    -0.107878   
C171     C      0.514420000000     0.949540000000     0.990980000000    -0.027259   
C172     C      0.419790000000     0.920850000000     0.949830000000     0.0833275  
C173     C      0.462110000000     0.907610000000     0.921800000000     0.243637   
C174     C      0.532080000000     0.966560000000     0.008880000000    -0.0363454  
C175     C      0.540960000000     0.011280000000     0.036630000000     0.0496334  
C176     C      0.467590000000     0.940510000000     0.962400000000     0.0822039  
C177     C      0.033720000000     0.688140000000     0.187950000000    -0.161604   
C178     C      0.953750000000     0.782320000000     0.339700000000     0.0730018  
C179     C      0.924030000000     0.793140000000     0.297880000000     0.0728591  
C180     C      0.971740000000     0.765070000000     0.322370000000    -0.0882725  
C181     C      0.015640000000     0.743170000000     0.276890000000    -0.0364986  
C182     C      0.033400000000     0.726090000000     0.259110000000    -0.0275324  
C183     C      0.984680000000     0.743520000000     0.273260000000    -0.00180976 
C184     C      0.941550000000     0.776070000000     0.279920000000    -0.0882528  
C185     C      0.020600000000     0.708990000000     0.237250000000    -0.0166075  
C186     C      0.063160000000     0.675900000000     0.230430000000    -0.108199   
C187     C      0.989650000000     0.709320000000     0.233640000000    -0.0273551  
C188     C      0.080370000000     0.658660000000     0.212380000000     0.0831815  
C189     C      0.051290000000     0.670640000000     0.170350000000     0.243303   
C190     C      0.971900000000     0.726360000000     0.251440000000    -0.0365343  
C191     C      0.965770000000     0.761770000000     0.292080000000     0.0495631  
C192     C      0.039440000000     0.690830000000     0.218310000000     0.0822143  
C193     C      0.312910000000     0.777500000000     0.981790000000    -0.161162   
C194     C      0.175820000000     0.657340000000     0.047750000000     0.0735071  
C195     C      0.203060000000     0.670950000000     0.090320000000     0.0732921  
C196     C      0.193130000000     0.674710000000     0.029900000000    -0.0877885  
C197     C      0.244130000000     0.700260000000     0.995480000000    -0.0361492  
C198     C      0.261790000000     0.717580000000     0.977880000000    -0.0273907  
C199     C      0.234840000000     0.708960000000     0.023780000000    -0.00174615 
C200     C      0.220830000000     0.688500000000     0.073120000000    -0.0878504  
C201     C      0.270650000000     0.743970000000     0.988170000000    -0.0162656  
C202     C      0.283940000000     0.765070000000     0.939060000000    -0.107991   
C203     C      0.261420000000     0.752670000000     0.016470000000    -0.0274674  
C204     C      0.301690000000     0.782530000000     0.921790000000     0.0828446  
C205     C      0.330360000000     0.794920000000     0.963980000000     0.243107   
C206     C      0.243700000000     0.735390000000     0.034060000000    -0.0362588  
C207     C      0.216030000000     0.690530000000     0.042490000000     0.0498321  
C208     C      0.289410000000     0.762390000000     0.969440000000     0.0821114  
C209     C      0.184630000000     0.513250000000     0.225350000000    -0.161295   
C210     C      0.337210000000     0.417230000000     0.301230000000     0.0744172  
C211     C      0.295930000000     0.404820000000     0.331010000000     0.0737306  
C212     C      0.319420000000     0.434810000000     0.284110000000    -0.0878985  
C213     C      0.280360000000     0.482690000000     0.263830000000    -0.0362412  
C214     C      0.262510000000     0.500320000000     0.246810000000    -0.0277517  
C215     C      0.270030000000     0.456300000000     0.272690000000    -0.00168538 
C216     C      0.277470000000     0.422160000000     0.314280000000    -0.087501   
C217     C      0.233890000000     0.491970000000     0.238180000000    -0.0163649  
C218     C      0.227340000000     0.526200000000     0.196620000000    -0.107871   
C219     C      0.223500000000     0.465620000000     0.247150000000    -0.0273647  
C220     C      0.209430000000     0.543750000000     0.179650000000     0.0830873  
C221     C      0.167160000000     0.531120000000     0.208060000000     0.243257   
C222     C      0.241350000000     0.448000000000     0.264230000000    -0.036184   
C223     C      0.289180000000     0.437500000000     0.290570000000     0.0501813  
C224     C      0.215040000000     0.510670000000     0.219820000000     0.0819879  
C225     C      0.962880000000     0.252090000000     0.819730000000    -0.161429   
C226     C      0.063100000000     0.176460000000     0.668380000000     0.0725205  
C227     C      0.068770000000     0.144860000000     0.708430000000     0.0727491  
C228     C      0.045330000000     0.193800000000     0.685800000000    -0.0880408  
C229     C      0.023280000000     0.234210000000     0.732540000000    -0.03624    
C230     C      0.005880000000     0.251500000000     0.750430000000    -0.0273637  
C231     C      0.020610000000     0.205010000000     0.734290000000    -0.00169767 
C232     C      0.051160000000     0.161760000000     0.726510000000    -0.0879876  
C233     C      0.985500000000     0.240010000000     0.770580000000    -0.0164052  
C234     C      0.953950000000     0.282470000000     0.778280000000    -0.107976   
C235     C      0.982810000000     0.210840000000     0.772370000000    -0.0274301  
C236     C      0.936950000000     0.299610000000     0.796630000000     0.0837659  
C237     C      0.945730000000     0.269640000000     0.837670000000     0.243879   
C238     C      0.000120000000     0.193540000000     0.754400000000    -0.0364546  
C239     C      0.039210000000     0.186620000000     0.715300000000     0.0494862  
C240     C      0.967190000000     0.258410000000     0.789760000000     0.0826155  
C241     C      0.808880000000     0.281870000000     0.981350000000    -0.161425   
C242     C      0.681500000000     0.150990000000     0.043300000000     0.0732748  
C243     C      0.699090000000     0.173220000000     0.086850000000     0.0734417  
C244     C      0.698880000000     0.168520000000     0.025680000000    -0.0880695  
C245     C      0.724950000000     0.218980000000     0.994090000000    -0.0363136  
C246     C      0.742730000000     0.236610000000     0.976960000000    -0.0280155  
C247     C      0.735800000000     0.207460000000     0.020630000000    -0.00205168 
C248     C      0.716780000000     0.191050000000     0.069920000000    -0.088103   
C249     C      0.771790000000     0.243090000000     0.985940000000    -0.0163154  
C250     C      0.790780000000     0.260130000000     0.936860000000    -0.108093   
C251     C      0.782650000000     0.231470000000     0.012430000000    -0.027729   
C252     C      0.808840000000     0.277850000000     0.920220000000     0.0830239  
C253     C      0.826680000000     0.299490000000     0.964130000000     0.243592   
C254     C      0.764870000000     0.213880000000     0.029570000000    -0.0361596  
C255     C      0.716890000000     0.188810000000     0.038950000000     0.0498922  
C256     C      0.790700000000     0.261930000000     0.967820000000     0.0819787  
C257     C      0.733540000000     0.532820000000     0.702100000000    -0.161437   
C258     C      0.798300000000     0.401790000000     0.828100000000     0.0725538  
C259     C      0.841770000000     0.423370000000     0.809420000000     0.0728038  
C260     C      0.780560000000     0.419640000000     0.811240000000    -0.0882658  
C261     C      0.749350000000     0.470930000000     0.786650000000    -0.0365669  
C262     C      0.731820000000     0.488730000000     0.769480000000    -0.0274538  
C263     C      0.775160000000     0.458860000000     0.774780000000    -0.00182117 
C264     C      0.824700000000     0.441490000000     0.792180000000    -0.088054   
C265     C      0.739640000000     0.494840000000     0.739990000000    -0.0165466  
C266     C      0.689850000000     0.512010000000     0.723110000000    -0.107984   
C267     C      0.765510000000     0.482800000000     0.728160000000    -0.0273177  
C268     C      0.672480000000     0.529430000000     0.705430000000     0.0831422  
C269     C      0.715590000000     0.549920000000     0.684430000000     0.243149   
C270     C      0.783080000000     0.465060000000     0.745360000000    -0.0366003  
C271     C      0.793700000000     0.439790000000     0.792970000000     0.0495139  
C272     C      0.720790000000     0.513500000000     0.721570000000     0.0820124  
C273     C      0.985440000000     0.415020000000     0.951320000000    -0.161235   
C274     C      0.046740000000     0.544640000000     0.080650000000     0.0738551  
C275     C      0.090840000000     0.525830000000     0.060180000000     0.0737178  
C276     C      0.029570000000     0.526660000000     0.063370000000    -0.0879445  
C277     C      0.999590000000     0.476020000000     0.036480000000    -0.0360018  
C278     C      0.982450000000     0.458450000000     0.018670000000    -0.0279396  
C279     C      0.025330000000     0.488720000000     0.025180000000    -0.00190183 
C280     C      0.074350000000     0.507510000000     0.042620000000    -0.0878725  
C281     C      0.990690000000     0.453080000000     0.989160000000    -0.016084   
C282     C      0.941350000000     0.436610000000     0.970550000000    -0.107965   
C283     C      0.016520000000     0.465600000000     0.977900000000    -0.0274834  
C284     C      0.924340000000     0.419310000000     0.952380000000     0.0844139  
C285     C      0.967850000000     0.397710000000     0.933520000000     0.244557   
C286     C      0.033620000000     0.483250000000     0.995680000000    -0.0357578  
C287     C      0.043300000000     0.507800000000     0.043990000000     0.0500895  
C288     C      0.972270000000     0.434650000000     0.970130000000     0.0826646  
Cd1      Cd     0.881740000000     0.349040000000     0.879660000000     0.511114   
Cd2      Cd     0.128250000000     0.600930000000     0.130850000000     0.510681   
Cd3      Cd     0.376800000000     0.850000000000     0.877910000000     0.510215   
Cd4      Cd     0.629400000000     0.098490000000     0.126670000000     0.509828   
Cd5      Cd     0.381610000000     0.350480000000     0.376760000000     0.509911   
Cd6      Cd     0.628510000000     0.598450000000     0.632190000000     0.510724   
Cd7      Cd     0.876400000000     0.849210000000     0.380910000000     0.509813   
Cd8      Cd     0.130030000000     0.100760000000     0.625790000000     0.509286   
H1       H      0.040150000000     0.045120000000     0.606290000000     0.0333093  
H2       H      0.965790000000     0.903100000000     0.404320000000     0.0316495  
H3       H      0.006920000000     0.965990000000     0.559890000000     0.0423377  
H4       H      0.999370000000     0.981030000000     0.451330000000     0.0400944  
H5       H      0.997140000000     0.933150000000     0.433810000000     0.0608532  
H6       H      0.030370000000     0.012000000000     0.480930000000     0.0424891  
H7       H      0.930270000000     0.935010000000     0.502000000000     0.0844984  
H8       H      0.008890000000     0.014310000000     0.577150000000     0.0563306  
H9       H      0.076380000000     0.011580000000     0.509390000000     0.0566286  
H10      H      0.975970000000     0.934950000000     0.530280000000     0.0396219  
H11      H      0.106830000000     0.042740000000     0.538880000000     0.0352026  
H12      H      0.897540000000     0.885110000000     0.486080000000     0.158967   
H13      H      0.804760000000     0.828820000000     0.460290000000     0.037513   
H14      H      0.700690000000     0.619690000000     0.554290000000     0.0317305  
H15      H      0.732640000000     0.768170000000     0.489260000000     0.04343    
H16      H      0.775290000000     0.679500000000     0.526720000000     0.0397644  
H17      H      0.731060000000     0.649430000000     0.523390000000     0.0613823  
H18      H      0.805560000000     0.709980000000     0.495750000000     0.042063   
H19      H      0.700410000000     0.721240000000     0.571950000000     0.0845747  
H20      H      0.775050000000     0.798660000000     0.491610000000     0.0572868  
H21      H      0.810050000000     0.726910000000     0.445540000000     0.0560654  
H22      H      0.702530000000     0.737800000000     0.520430000000     0.0423273  
H23      H      0.840010000000     0.757700000000     0.415100000000     0.0335406  
H24      H      0.679360000000     0.694000000000     0.625130000000     0.160892   
H25      H      0.222740000000     0.149370000000     0.599010000000     0.034093   
H26      H      0.329810000000     0.263950000000     0.401620000000     0.0312779  
H27      H      0.259180000000     0.228700000000     0.556300000000     0.0423256  
H28      H      0.248890000000     0.225940000000     0.446840000000     0.0399337  
H29      H      0.299720000000     0.233190000000     0.431520000000     0.0609628  
H30      H      0.219210000000     0.194490000000     0.477180000000     0.0422964  
H31      H      0.285780000000     0.299810000000     0.494130000000     0.0846237  
H32      H      0.253300000000     0.179900000000     0.568850000000     0.0563068  
H33      H      0.178270000000     0.195230000000     0.511720000000     0.0564478  
H34      H      0.289790000000     0.259300000000     0.525890000000     0.0396719  
H35      H      0.148590000000     0.164110000000     0.541980000000     0.0343595  
H36      H      0.335650000000     0.335090000000     0.478950000000     0.159964   
H37      H      0.571460000000     0.576380000000     0.541930000000     0.0351467  
H38      H      0.445430000000     0.372960000000     0.461500000000     0.0313143  
H39      H      0.494140000000     0.523640000000     0.508530000000     0.0435199  
H40      H      0.524350000000     0.425160000000     0.493090000000     0.0391421  
H41      H      0.476000000000     0.402480000000     0.492410000000     0.0610132  
H42      H      0.554580000000     0.455320000000     0.524470000000     0.0418858  
H43      H      0.465470000000     0.469590000000     0.429740000000     0.0841906  
H44      H      0.542400000000     0.546470000000     0.509660000000     0.0568913  
H45      H      0.552650000000     0.479030000000     0.572240000000     0.0563504  
H46      H      0.463920000000     0.493500000000     0.477210000000     0.0424332  
H47      H      0.582030000000     0.509390000000     0.603720000000     0.0340064  
H48      H      0.447330000000     0.437940000000     0.378300000000     0.159225   
H49      H      0.645350000000     0.017850000000     0.192750000000     0.0335293  
H50      H      0.857590000000     0.928640000000     0.315160000000     0.0318359  
H51      H      0.714360000000     0.950970000000     0.218090000000     0.0424378  
H52      H      0.789540000000     0.992400000000     0.285240000000     0.0401634  
H53      H      0.828470000000     0.958560000000     0.283420000000     0.0609252  
H54      H      0.759810000000     0.022820000000     0.253740000000     0.0427301  
H55      H      0.751850000000     0.907030000000     0.299660000000     0.0845007  
H56      H      0.674930000000     0.986930000000     0.223540000000     0.0566367  
H57      H      0.753190000000     0.033830000000     0.200290000000     0.0564091  
H58      H      0.744420000000     0.920410000000     0.249160000000     0.0395381  
H59      H      0.722960000000     0.064430000000     0.169820000000     0.0338714  
H60      H      0.781300000000     0.856400000000     0.318840000000     0.159569   
H61      H      0.407970000000     0.301430000000     0.284580000000     0.0339491  
H62      H      0.599440000000     0.143890000000     0.219180000000     0.0315169  
H63      H      0.488470000000     0.270360000000     0.231120000000     0.0427296  
H64      H      0.522940000000     0.180020000000     0.272300000000     0.0391611  
H65      H      0.570620000000     0.174840000000     0.250070000000     0.0608503  
H66      H      0.493390000000     0.211210000000     0.303150000000     0.0422752  
H67      H      0.516540000000     0.196220000000     0.174630000000     0.0837172  
H68      H      0.437960000000     0.270890000000     0.253830000000     0.0565492  
H69      H      0.497440000000     0.258000000000     0.327460000000     0.0561792  
H70      H      0.518550000000     0.239540000000     0.200400000000     0.0415151  
H71      H      0.466910000000     0.288640000000     0.357660000000     0.0331702  
H72      H      0.530100000000     0.149550000000     0.136540000000     0.159665   
H73      H      0.362920000000     0.914520000000     0.793880000000     0.0335486  
H74      H      0.197030000000     0.080770000000     0.708530000000     0.03203    
H75      H      0.293720000000     0.945170000000     0.727590000000     0.0425689  
H76      H      0.224440000000     0.012910000000     0.773620000000     0.0393053  
H77      H      0.228500000000     0.052090000000     0.739440000000     0.0611142  
H78      H      0.254640000000     0.983020000000     0.805260000000     0.0418778  
H79      H      0.212940000000     0.982230000000     0.681390000000     0.0840256  
H80      H      0.334730000000     0.946140000000     0.762670000000     0.0562531  
H81      H      0.258500000000     0.934110000000     0.819070000000     0.0561408  
H82      H      0.264330000000     0.975800000000     0.695960000000     0.0417092  
H83      H      0.287480000000     0.903000000000     0.850050000000     0.033701   
H84      H      0.159810000000     0.001180000000     0.652120000000     0.159286   
H85      H      0.395780000000     0.790940000000     0.790500000000     0.0341686  
H86      H      0.600660000000     0.650630000000     0.721400000000     0.0324868  
H87      H      0.469830000000     0.756780000000     0.732930000000     0.0427109  
H88      H      0.522460000000     0.677610000000     0.780390000000     0.0404524  
H89      H      0.569320000000     0.679730000000     0.752020000000     0.0618615  
H90      H      0.491580000000     0.708170000000     0.810670000000     0.0427555  
H91      H      0.501750000000     0.677510000000     0.684590000000     0.0850105  
H92      H      0.424450000000     0.758600000000     0.760680000000     0.0564161  
H93      H      0.490320000000     0.754860000000     0.830010000000     0.0572993  
H94      H      0.500390000000     0.726010000000     0.702690000000     0.0406066  
H95      H      0.460670000000     0.786620000000     0.859520000000     0.0375529  
H96      H      0.537670000000     0.661740000000     0.634120000000     0.161905   
H97      H      0.612620000000     0.030610000000     0.046390000000     0.0340635  
H98      H      0.396300000000     0.919740000000     0.954820000000     0.0315657  
H99      H      0.553280000000     0.958650000000     0.016400000000     0.0425994  
H100     H      0.455320000000     0.993190000000     0.982390000000     0.0391751  
H101     H      0.426610000000     0.949910000000     0.985280000000     0.0611084  
H102     H      0.486180000000     0.022960000000     0.013530000000     0.0421089  
H103     H      0.503480000000     0.926350000000     0.934430000000     0.0842497  
H104     H      0.582390000000     0.001100000000     0.014800000000     0.0562937  
H105     H      0.504700000000     0.026390000000     0.063790000000     0.0560576  
H106     H      0.522470000000     0.928960000000     0.985140000000     0.042362   
H107     H      0.535510000000     0.056110000000     0.094520000000     0.0334927  
H108     H      0.474510000000     0.905230000000     0.881780000000     0.159067   
H109     H      0.905570000000     0.803910000000     0.287570000000     0.0332271  
H110     H      0.098420000000     0.647420000000     0.222860000000     0.031255   
H111     H      0.948090000000     0.725770000000     0.248380000000     0.0421588  
H112     H      0.057210000000     0.726610000000     0.262180000000     0.0399225  
H113     H      0.068170000000     0.677140000000     0.253880000000     0.0609728  
H114     H      0.026250000000     0.756450000000     0.293170000000     0.0421807  
H115     H      0.015790000000     0.699700000000     0.177700000000     0.0844061  
H116     H      0.936350000000     0.774440000000     0.256540000000     0.0562013  
H117     H      0.989980000000     0.754120000000     0.332790000000     0.0559799  
H118     H      0.979060000000     0.696050000000     0.217330000000     0.0397504  
H119     H      0.959080000000     0.784260000000     0.363050000000     0.0336008  
H120     H      0.030140000000     0.653360000000     0.139080000000     0.160519   
H121     H      0.207610000000     0.669870000000     0.113900000000     0.0341211  
H122     H      0.296510000000     0.783940000000     0.898360000000     0.0318566  
H123     H      0.236570000000     0.742930000000     0.055540000000     0.042478   
H124     H      0.268890000000     0.710090000000     0.956350000000     0.0402518  
H125     H      0.265770000000     0.754020000000     0.928640000000     0.0612254  
H126     H      0.238130000000     0.679860000000     0.987070000000     0.0425273  
H127     H      0.318030000000     0.775670000000     0.005190000000     0.0844672  
H128     H      0.238510000000     0.700070000000     0.083750000000     0.0564974  
H129     H      0.188330000000     0.675930000000     0.006400000000     0.0565117  
H130     H      0.267500000000     0.773060000000     0.024870000000     0.0398847  
H131     H      0.158320000000     0.645470000000     0.037120000000     0.0346428  
H132     H      0.344370000000     0.827090000000     0.983910000000     0.159829   
H133     H      0.286070000000     0.393440000000     0.349300000000     0.0358253  
H134     H      0.220030000000     0.555230000000     0.161840000000     0.0319909  
H135     H      0.232880000000     0.427650000000     0.270360000000     0.0428493  
H136     H      0.271010000000     0.520670000000     0.240730000000     0.0396993  
H137     H      0.250690000000     0.524570000000     0.191260000000     0.0611904  
H138     H      0.302160000000     0.489900000000     0.270390000000     0.0430388  
H139     H      0.174370000000     0.501840000000     0.243380000000     0.0840574  
H140     H      0.254270000000     0.423850000000     0.320220000000     0.0572463  
H141     H      0.329310000000     0.445980000000     0.265720000000     0.0567723  
H142     H      0.201730000000     0.458380000000     0.240540000000     0.041837   
H143     H      0.360500000000     0.415730000000     0.295470000000     0.0352919  
H144     H      0.135880000000     0.548180000000     0.229390000000     0.160157   
H145     H      0.077710000000     0.125880000000     0.718010000000     0.0336843  
H146     H      0.927160000000     0.318040000000     0.786690000000     0.032206   
H147     H      0.997130000000     0.171170000000     0.755990000000     0.0421088  
H148     H      0.008770000000     0.273890000000     0.748840000000     0.0408396  
H149     H      0.956440000000     0.287950000000     0.755110000000     0.0613831  
H150     H      0.039180000000     0.243760000000     0.717680000000     0.0424667  
H151     H      0.973040000000     0.233750000000     0.829440000000     0.0849465  
H152     H      0.047360000000     0.155540000000     0.749280000000     0.0562057  
H153     H      0.036210000000     0.212580000000     0.676050000000     0.0560679  
H154     H      0.967000000000     0.201370000000     0.787390000000     0.0397126  
H155     H      0.067300000000     0.182790000000     0.645680000000     0.0337682  
H156     H      0.924370000000     0.250520000000     0.867560000000     0.158809   
H157     H      0.699630000000     0.175660000000     0.110750000000     0.0344009  
H158     H      0.808280000000     0.275490000000     0.896320000000     0.0310821  
H159     H      0.774060000000     0.204980000000     0.049640000000     0.042704   
H160     H      0.733530000000     0.245530000000     0.956900000000     0.0392975  
H161     H      0.777310000000     0.244790000000     0.925470000000     0.060794   
H162     H      0.702520000000     0.214760000000     0.986800000000     0.0423747  
H163     H      0.809070000000     0.284190000000     0.005240000000     0.0840624  
H164     H      0.730060000000     0.206690000000     0.081070000000     0.0566042  
H165     H      0.698540000000     0.165860000000     0.001840000000     0.0563625  
H166     H      0.805090000000     0.235650000000     0.019730000000     0.0420446  
H167     H      0.668010000000     0.135440000000     0.032190000000     0.0342903  
H168     H      0.831410000000     0.335620000000     0.980440000000     0.159555   
H169     H      0.865690000000     0.425440000000     0.808270000000     0.0347288  
H170     H      0.648610000000     0.527370000000     0.707370000000     0.0323271  
H171     H      0.802600000000     0.455780000000     0.735430000000     0.0423676  
H172     H      0.712320000000     0.498000000000     0.779440000000     0.0399204  
H173     H      0.679000000000     0.497140000000     0.737580000000     0.0609098  
H174     H      0.742890000000     0.466900000000     0.809380000000     0.0423522  
H175     H      0.757420000000     0.534910000000     0.700620000000     0.0841454  
H176     H      0.835750000000     0.456970000000     0.778610000000     0.0567078  
H177     H      0.756680000000     0.417380000000     0.812230000000     0.0559629  
H178     H      0.771930000000     0.486680000000     0.705390000000     0.0394619  
H179     H      0.787270000000     0.386420000000     0.841870000000     0.0332902  
H180     H      0.732350000000     0.558200000000     0.646960000000     0.159205   
H181     H      0.114800000000     0.524930000000     0.058450000000     0.0343269  
H182     H      0.900460000000     0.421770000000     0.953390000000     0.0321138  
H183     H      0.053030000000     0.493030000000     0.986110000000     0.0428475  
H184     H      0.962910000000     0.448770000000     0.028130000000     0.0402003  
H185     H      0.930260000000     0.451750000000     0.984520000000     0.0615865  
H186     H      0.992830000000     0.479390000000     0.059240000000     0.0424949  
H187     H      0.009330000000     0.412700000000     0.950680000000     0.0849699  
H188     H      0.085930000000     0.493010000000     0.028290000000     0.0567245  
H189     H      0.005640000000     0.527900000000     0.064870000000     0.0564132  
H190     H      0.023230000000     0.462190000000     0.955120000000     0.0423339  
H191     H      0.035220000000     0.559010000000     0.095230000000     0.0341535  
H192     H      0.983970000000     0.361640000000     0.927790000000     0.163392   
N1       N      0.930190000000     0.901370000000     0.435940000000    -0.207491   
N2       N      0.075700000000     0.046180000000     0.574680000000    -0.180014   
N3       N      0.682860000000     0.652990000000     0.580770000000    -0.207635   
N4       N      0.824510000000     0.795450000000     0.435450000000    -0.179129   
N5       N      0.325760000000     0.299390000000     0.430540000000    -0.207655   
N6       N      0.183500000000     0.154530000000     0.572670000000    -0.179839   
N7       N      0.437470000000     0.404020000000     0.428070000000    -0.20783    
N8       N      0.578780000000     0.545070000000     0.575150000000    -0.1797     
N9       N      0.822050000000     0.900360000000     0.325360000000    -0.20794    
N10      N      0.682000000000     0.043380000000     0.179140000000    -0.180377   
N11      N      0.575270000000     0.152400000000     0.179140000000    -0.207915   
N12      N      0.435260000000     0.297220000000     0.323310000000    -0.180373   
N13      N      0.186840000000     0.048400000000     0.677160000000    -0.207482   
N14      N      0.327240000000     0.906450000000     0.824170000000    -0.180189   
N15      N      0.569770000000     0.647470000000     0.685270000000    -0.207652   
N16      N      0.426200000000     0.791190000000     0.827090000000    -0.179163   
N17      N      0.432090000000     0.905360000000     0.927320000000    -0.207322   
N18      N      0.576260000000     0.045510000000     0.072680000000    -0.179681   
N19      N      0.074600000000     0.655930000000     0.182600000000    -0.207593   
N20      N      0.930110000000     0.796240000000     0.327520000000    -0.180114   
N21      N      0.324770000000     0.797340000000     0.933980000000    -0.207597   
N22      N      0.180800000000     0.655450000000     0.077700000000    -0.179887   
N23      N      0.179580000000     0.546260000000     0.185160000000    -0.207633   
N24      N      0.325560000000     0.402450000000     0.324540000000    -0.179089   
N25      N      0.932940000000     0.293470000000     0.826130000000    -0.207371   
N26      N      0.074760000000     0.152220000000     0.679640000000    -0.180198   
N27      N      0.826790000000     0.297310000000     0.933600000000    -0.207655   
N28      N      0.681680000000     0.153300000000     0.073630000000    -0.179873   
N29      N      0.685080000000     0.548200000000     0.686150000000    -0.207527   
N30      N      0.828650000000     0.403680000000     0.827200000000    -0.180053   
N31      N      0.937330000000     0.400030000000     0.933940000000    -0.207473   
N32      N      0.077120000000     0.544280000000     0.078970000000    -0.179882   
O1       O      0.873770000000     0.387410000000     0.844030000000    -0.247442   
O2       O      0.844350000000     0.312370000000     0.888190000000    -0.250852   
O3       O      0.891580000000     0.385880000000     0.916490000000    -0.25034    
O4       O      0.903920000000     0.332730000000     0.832730000000    -0.250712   
O5       O      0.912730000000     0.307480000000     0.870920000000    -0.235926   
O6       O      0.929920000000     0.365230000000     0.899070000000    -0.236156   
O7       O      0.834420000000     0.367490000000     0.860430000000    -0.250791   
O8       O      0.861960000000     0.331980000000     0.927130000000    -0.236948   
O9       O      0.174380000000     0.578080000000     0.147030000000    -0.250921   
O10      O      0.113060000000     0.624490000000     0.177090000000    -0.251294   
O11      O      0.121640000000     0.563020000000     0.094420000000    -0.248721   
O12      O      0.167610000000     0.635890000000     0.122550000000    -0.249129   
O13      O      0.143380000000     0.623150000000     0.083890000000    -0.248683   
O14      O      0.081700000000     0.579470000000     0.113560000000    -0.247056   
O15      O      0.135220000000     0.566760000000     0.171140000000    -0.237477   
O16      O      0.088160000000     0.635170000000     0.138260000000    -0.236652   
O17      O      0.386710000000     0.885490000000     0.916260000000    -0.250711   
O18      O      0.370000000000     0.882430000000     0.835900000000    -0.251025   
O19      O      0.363490000000     0.828080000000     0.925590000000    -0.236817   
O20      O      0.418220000000     0.817490000000     0.869180000000    -0.241874   
O21      O      0.386330000000     0.820670000000     0.833980000000    -0.24811    
O22      O      0.336260000000     0.816880000000     0.888580000000    -0.251879   
O23      O      0.424170000000     0.872650000000     0.890380000000    -0.234072   
O24      O      0.332120000000     0.876700000000     0.864090000000    -0.250183   
O25      O      0.621300000000     0.064160000000     0.086780000000    -0.246771   
O26      O      0.613080000000     0.120300000000     0.173450000000    -0.253104   
O27      O      0.648570000000     0.116980000000     0.079280000000    -0.246936   
O28      O      0.637220000000     0.058380000000     0.160210000000    -0.251656   
O29      O      0.676380000000     0.080820000000     0.147500000000    -0.25063    
O30      O      0.664370000000     0.137300000000     0.118640000000    -0.248341   
O31      O      0.582410000000     0.077310000000     0.110580000000    -0.247609   
O32      O      0.589370000000     0.132680000000     0.134440000000    -0.236678   
O33      O      0.394400000000     0.325260000000     0.330880000000    -0.248964   
O34      O      0.349590000000     0.341030000000     0.419880000000    -0.235085   
O35      O      0.370870000000     0.382850000000     0.335870000000    -0.242459   
O36      O      0.407430000000     0.394650000000     0.387670000000    -0.238747   
O37      O      0.414190000000     0.361870000000     0.419170000000    -0.250681   
O38      O      0.333650000000     0.371830000000     0.363230000000    -0.246142   
O39      O      0.424930000000     0.320300000000     0.367010000000    -0.252064   
O40      O      0.354860000000     0.307220000000     0.389190000000    -0.254148   
O41      O      0.614340000000     0.625000000000     0.676950000000    -0.250456   
O42      O      0.600170000000     0.587410000000     0.586820000000    -0.246263   
O43      O      0.638940000000     0.563260000000     0.670650000000    -0.247432   
O44      O      0.649060000000     0.644170000000     0.618270000000    -0.239229   
O45      O      0.664720000000     0.609330000000     0.592880000000    -0.249118   
O46      O      0.677010000000     0.581960000000     0.650290000000    -0.239555   
O47      O      0.581270000000     0.622250000000     0.643020000000    -0.23845    
O48      O      0.605400000000     0.553790000000     0.617820000000    -0.248969   
O49      O      0.829790000000     0.861970000000     0.355560000000    -0.239347   
O50      O      0.887500000000     0.876140000000     0.426190000000    -0.236243   
O51      O      0.890700000000     0.826270000000     0.334270000000    -0.251762   
O52      O      0.858630000000     0.803300000000     0.398240000000    -0.249799   
O53      O      0.840250000000     0.839010000000     0.420410000000    -0.238978   
O54      O      0.917850000000     0.816770000000     0.372160000000    -0.247373   
O55      O      0.866340000000     0.889650000000     0.348460000000    -0.253057   
O56      O      0.921420000000     0.876340000000     0.393020000000    -0.250762   
O57      O      0.084920000000     0.073010000000     0.616170000000    -0.252162   
O58      O      0.164000000000     0.090580000000     0.667260000000    -0.247366   
O59      O      0.098900000000     0.142020000000     0.635880000000    -0.251047   
O60      O      0.139550000000     0.132190000000     0.583610000000    -0.246409   
O61      O      0.176510000000     0.125190000000     0.612660000000    -0.249856   
O62      O      0.103220000000     0.112900000000     0.671770000000    -0.248457   
O63      O      0.118410000000     0.071640000000     0.582330000000    -0.245439   
O64      O      0.155830000000     0.056780000000     0.637210000000    -0.239681   
O65      O      0.893690000000     0.902480000000     0.474750000000    -0.285275   
O66      O      0.666360000000     0.693580000000     0.607380000000    -0.287381   
O67      O      0.317770000000     0.335920000000     0.466170000000    -0.285649   
O68      O      0.432150000000     0.441970000000     0.393630000000    -0.286307   
O69      O      0.778980000000     0.871800000000     0.333350000000    -0.286168   
O70      O      0.544730000000     0.164980000000     0.137570000000    -0.286745   
O71      O      0.178960000000     0.008980000000     0.645160000000    -0.286744   
O72      O      0.531560000000     0.646840000000     0.648120000000    -0.286773   
O73      O      0.475480000000     0.892860000000     0.899380000000    -0.285306   
O74      O      0.044660000000     0.668840000000     0.140690000000    -0.286584   
O75      O      0.353180000000     0.809170000000     0.977290000000    -0.285676   
O76      O      0.137480000000     0.532930000000     0.214600000000    -0.28698    
O77      O      0.942330000000     0.262460000000     0.866960000000    -0.284699   
O78      O      0.843980000000     0.318720000000     0.978630000000    -0.286415   
O79      O      0.729350000000     0.568520000000     0.665800000000    -0.287221   
O80      O      0.981960000000     0.378750000000     0.915570000000    -0.285994   


