data_structure

_audit_creation_method RASPA-1.0
_audit_creation_date 2023-6-5
_audit_author_name 'Poobodin Mano'

_cell_length_a    57.3696
_cell_length_b    57.5435
_cell_length_c    30.9704
_cell_angle_alpha 90.0318
_cell_angle_beta  89.9144
_cell_angle_gamma 90
_cell_volume      102241

_symmetry_cell_setting          triclinic
_symmetry_space_group_name_Hall 'P 1'
_symmetry_space_group_name_H-M  'P 1'
_symmetry_Int_Tables_number     1

_symmetry_equiv_pos_as_xyz 'x,y,z'

loop_
_atom_site_label
_atom_site_type_symbol
_atom_site_fract_x
_atom_site_fract_y
_atom_site_fract_z
_atom_site_charge
C1       C      0.383050000000     0.318380000000     0.975380000000     0.348762   
C2       C      0.308830000000     0.310630000000     0.052180000000     0.344953   
C3       C      0.331550000000     0.378080000000     0.980670000000     0.348717   
C4       C      0.314270000000     0.305370000000     0.900590000000     0.346047   
C5       C      0.310870000000     0.698730000000     0.054260000000     0.345173   
C6       C      0.323980000000     0.623940000000     0.976220000000     0.346916   
C7       C      0.304860000000     0.693670000000     0.906490000000     0.347303   
C8       C      0.378730000000     0.681750000000     0.987040000000     0.349158   
C9       C      0.629220000000     0.324380000000     0.985280000000     0.34775    
C10      C      0.704670000000     0.311270000000     0.909360000000     0.35051    
C11      C      0.685370000000     0.379650000000     0.976510000000     0.348027   
C12      C      0.698800000000     0.307460000000     0.058260000000     0.347877   
C13      C      0.683920000000     0.625310000000     0.983560000000     0.344929   
C14      C      0.692690000000     0.699820000000     0.908450000000     0.346128   
C15      C      0.625330000000     0.680130000000     0.981200000000     0.348333   
C16      C      0.702140000000     0.693290000000     0.054950000000     0.330298   
C17      C      0.811810000000     0.194160000000     0.559400000000     0.351347   
C18      C      0.820780000000     0.123440000000     0.473190000000     0.347544   
C19      C      0.807520000000     0.197760000000     0.413880000000     0.346355   
C20      C      0.880700000000     0.178280000000     0.484860000000     0.349141   
C21      C      0.803700000000     0.809780000000     0.557150000000     0.346057   
C22      C      0.878600000000     0.824390000000     0.488450000000     0.345876   
C23      C      0.809210000000     0.803190000000     0.410760000000     0.346399   
C24      C      0.821030000000     0.878210000000     0.476450000000     0.350049   
C25      C      0.198870000000     0.809980000000     0.405680000000     0.347445   
C26      C      0.125150000000     0.822780000000     0.483860000000     0.349545   
C27      C      0.193320000000     0.803700000000     0.553820000000     0.346624   
C28      C      0.180080000000     0.878960000000     0.474850000000     0.347051   
C29      C      0.197620000000     0.199120000000     0.404250000000     0.346105   
C30      C      0.178650000000     0.124810000000     0.482800000000     0.344691   
C31      C      0.201170000000     0.194000000000     0.551090000000     0.346652   
C32      C      0.127210000000     0.183200000000     0.470460000000     0.346881   
C33      C      0.169640000000     0.063760000000     0.517110000000    -0.0737203  
C34      C      0.199510000000     0.914000000000     0.494330000000     0.0742275  
C35      C      0.164490000000     0.915470000000     0.453840000000     0.0740201  
C36      C      0.200470000000     0.938270000000     0.495590000000    -0.0876114  
C37      C      0.203340000000     0.989970000000     0.472020000000    -0.0317485  
C38      C      0.203070000000     0.014270000000     0.473950000000    -0.0332912  
C39      C      0.182790000000     0.977190000000     0.478880000000    -0.00367438 
C40      C      0.164830000000     0.939710000000     0.454740000000    -0.0881909  
C41      C      0.182290000000     0.026240000000     0.483230000000    -0.000691157
C42      C      0.192580000000     0.065080000000     0.452360000000    -0.0844331  
C43      C      0.161820000000     0.013420000000     0.490520000000    -0.033223   
C44      C      0.191010000000     0.089230000000     0.452910000000     0.0708983  
C45      C      0.168100000000     0.088150000000     0.517120000000     0.0530201  
C46      C      0.162050000000     0.989190000000     0.488260000000    -0.031203   
C47      C      0.182820000000     0.951420000000     0.476150000000     0.0518434  
C48      C      0.181760000000     0.052040000000     0.484540000000     0.0471536  
C49      C      0.940200000000     0.829510000000     0.523670000000    -0.0744599  
C50      C      0.089520000000     0.813150000000     0.449110000000     0.0761701  
C51      C      0.089230000000     0.826170000000     0.521750000000     0.0761891  
C52      C      0.065230000000     0.811600000000     0.449150000000    -0.0873467  
C53      C      0.014000000000     0.824130000000     0.449440000000    -0.031272   
C54      C      0.989640000000     0.824380000000     0.449930000000    -0.0330154  
C55      C      0.026620000000     0.817240000000     0.486200000000    -0.00304891 
C56      C      0.064920000000     0.824980000000     0.522820000000    -0.0871484  
C57      C      0.977350000000     0.817920000000     0.487290000000    -0.00056305 
C58      C      0.938120000000     0.810840000000     0.454580000000    -0.0845029  
C59      C      0.989900000000     0.810760000000     0.523870000000    -0.0326841  
C60      C      0.913920000000     0.812640000000     0.456170000000     0.0717498  
C61      C      0.915780000000     0.831360000000     0.524740000000     0.0548197  
C62      C      0.014240000000     0.810340000000     0.523290000000    -0.0304932  
C63      C      0.052560000000     0.817780000000     0.486150000000     0.0527325  
C64      C      0.951530000000     0.819320000000     0.488550000000     0.0484034  
C65      C      0.816130000000     0.063760000000     0.429130000000    -0.0746036  
C66      C      0.811830000000     0.914330000000     0.509580000000     0.0769874  
C67      C      0.822750000000     0.913190000000     0.435760000000     0.0759714  
C68      C      0.810070000000     0.938520000000     0.508050000000    -0.0867899  
C69      C      0.797050000000     0.988670000000     0.491390000000    -0.0311863  
C70      C      0.796870000000     0.012960000000     0.491050000000    -0.0327717  
C71      C      0.813910000000     0.976230000000     0.467740000000    -0.00285069 
C72      C      0.820950000000     0.937340000000     0.432970000000    -0.0873359  
C73      C      0.813370000000     0.025350000000     0.466710000000    -0.000607385
C74      C      0.812030000000     0.063190000000     0.506200000000    -0.0844909  
C75      C      0.829970000000     0.013000000000     0.442490000000    -0.0327232  
C76      C      0.813770000000     0.087320000000     0.506550000000     0.072375   
C77      C      0.817280000000     0.088160000000     0.429910000000     0.0542431  
C78      C      0.830310000000     0.988730000000     0.443150000000    -0.0307419  
C79      C      0.814800000000     0.950390000000     0.469490000000     0.0528024  
C80      C      0.813720000000     0.051120000000     0.467340000000     0.0483301  
C81      C      0.066930000000     0.202140000000     0.494530000000    -0.0723661  
C82      C      0.917920000000     0.165130000000     0.508010000000     0.0751237  
C83      C      0.915130000000     0.196920000000     0.459620000000     0.0755149  
C84      C      0.942220000000     0.166220000000     0.506560000000    -0.087659   
C85      C      0.992290000000     0.163180000000     0.476000000000    -0.0311407  
C86      C      0.016590000000     0.163950000000     0.473310000000    -0.0325566  
C87      C      0.979170000000     0.183800000000     0.477740000000    -0.00308464 
C88      C      0.939400000000     0.198480000000     0.457350000000    -0.0874439  
C89      C      0.028390000000     0.185360000000     0.472210000000     0.000122558
C90      C      0.066560000000     0.170640000000     0.443790000000    -0.0842639  
C91      C      0.015270000000     0.205990000000     0.473710000000    -0.0328561  
C92      C      0.090850000000     0.170840000000     0.443590000000     0.0725976  
C93      C      0.091420000000     0.202390000000     0.493340000000     0.0557013  
C94      C      0.990950000000     0.205220000000     0.476450000000    -0.0305186  
C95      C      0.953290000000     0.182900000000     0.480720000000     0.0525046  
C96      C      0.054290000000     0.186070000000     0.470090000000     0.0482132  
C97      C      0.790100000000     0.786600000000     0.665690000000    -0.0736401  
C98      C      0.713170000000     0.699600000000     0.841760000000     0.0746162  
C99      C      0.697970000000     0.734990000000     0.869240000000     0.0742433  
C100     C      0.722360000000     0.711150000000     0.805990000000    -0.0881035  
C101     C      0.728390000000     0.739160000000     0.723040000000    -0.0317724  
C102     C      0.739660000000     0.750320000000     0.688800000000    -0.0330669  
C103     C      0.730360000000     0.747800000000     0.765350000000    -0.00380267 
C104     C      0.707210000000     0.747160000000     0.834110000000    -0.0881618  
C105     C      0.753360000000     0.770140000000     0.696320000000    -0.000840252
C106     C      0.755870000000     0.785990000000     0.621260000000    -0.0850485  
C107     C      0.755010000000     0.779000000000     0.738500000000    -0.0332316  
C108     C      0.768730000000     0.796080000000     0.587960000000     0.0714799  
C109     C      0.802790000000     0.796800000000     0.631870000000     0.0536674  
C110     C      0.743510000000     0.768010000000     0.772640000000    -0.0309199  
C111     C      0.719610000000     0.735220000000     0.802050000000     0.0522917  
C112     C      0.766580000000     0.781070000000     0.660550000000     0.047713   
C113     C      0.716110000000     0.710750000000     0.165540000000    -0.0727885  
C114     C      0.787790000000     0.803040000000     0.345180000000     0.0742703  
C115     C      0.803240000000     0.767780000000     0.372510000000     0.073975   
C116     C      0.778400000000     0.791350000000     0.309750000000    -0.0877948  
C117     C      0.772320000000     0.764380000000     0.226480000000    -0.031825   
C118     C      0.762000000000     0.753060000000     0.191490000000    -0.0329695  
C119     C      0.771340000000     0.754680000000     0.268080000000    -0.00341011 
C120     C      0.793990000000     0.755510000000     0.337520000000    -0.0876554  
C121     C      0.750400000000     0.731760000000     0.197240000000    -0.000422633
C122     C      0.748550000000     0.720130000000     0.119130000000    -0.0841228  
C123     C      0.749730000000     0.721850000000     0.238720000000    -0.0331116  
C124     C      0.736370000000     0.710770000000     0.084190000000     0.0728484  
C125     C      0.704400000000     0.701650000000     0.129750000000     0.0523604  
C126     C      0.760140000000     0.733150000000     0.273740000000    -0.0316417  
C127     C      0.781430000000     0.767300000000     0.305540000000     0.0516917  
C128     C      0.738360000000     0.720450000000     0.160320000000     0.0461902  
C129     C      0.751400000000     0.291540000000     0.835100000000    -0.0739546  
C130     C      0.779130000000     0.201990000000     0.604250000000     0.0798374  
C131     C      0.815550000000     0.219680000000     0.619490000000     0.0775924  
C132     C      0.768770000000     0.213810000000     0.638620000000    -0.0864354  
C133     C      0.749690000000     0.253230000000     0.694040000000    -0.0311496  
C134     C      0.739200000000     0.265380000000     0.727950000000    -0.0312409  
C135     C      0.771150000000     0.241940000000     0.700070000000    -0.0023298  
C136     C      0.805790000000     0.231580000000     0.654470000000    -0.0870137  
C137     C      0.749790000000     0.266320000000     0.768860000000    -0.000242906
C138     C      0.714150000000     0.278210000000     0.810310000000    -0.0837275  
C139     C      0.771330000000     0.255040000000     0.774760000000    -0.0317727  
C140     C      0.703660000000     0.289750000000     0.844730000000     0.0746921  
C141     C      0.740540000000     0.303150000000     0.869670000000     0.0570544  
C142     C      0.781950000000     0.243090000000     0.740670000000    -0.0313166  
C143     C      0.782080000000     0.228900000000     0.664060000000     0.0538043  
C144     C      0.738310000000     0.278820000000     0.805250000000     0.0494767  
C145     C      0.766040000000     0.234430000000     0.352660000000    -0.0732567  
C146     C      0.701770000000     0.274860000000     0.105150000000     0.0750874  
C147     C      0.725290000000     0.308130000000     0.117090000000     0.0764949  
C148     C      0.711880000000     0.263690000000     0.140530000000    -0.0875288  
C149     C      0.746820000000     0.239970000000     0.200110000000    -0.0306899  
C150     C      0.757730000000     0.229270000000     0.235190000000    -0.0325838  
C151     C      0.740180000000     0.263460000000     0.202320000000    -0.00317307 
C152     C      0.735690000000     0.297530000000     0.152700000000    -0.0873353  
C153     C      0.762130000000     0.241800000000     0.273300000000     0.000236538
C154     C      0.793120000000     0.216170000000     0.304310000000    -0.0829189  
C155     C      0.755360000000     0.265240000000     0.275570000000    -0.0328298  
C156     C      0.804040000000     0.205930000000     0.339650000000     0.0741558  
C157     C      0.777370000000     0.224170000000     0.388030000000     0.0553573  
C158     C      0.744530000000     0.275950000000     0.240480000000    -0.0304446  
C159     C      0.729070000000     0.275030000000     0.164770000000     0.0528991  
C160     C      0.773840000000     0.230520000000     0.310540000000     0.0485972  
C161     C      0.690310000000     0.440270000000     0.936750000000    -0.0741541  
C162     C      0.685650000000     0.589130000000     0.020630000000     0.0742131  
C163     C      0.690040000000     0.590310000000     0.944500000000     0.0748304  
C164     C      0.687260000000     0.564900000000     0.020170000000    -0.0871997  
C165     C      0.703260000000     0.514530000000     0.009590000000    -0.0314707  
C166     C      0.703360000000     0.490250000000     0.008250000000    -0.0322953  
C167     C      0.690340000000     0.527340000000     0.979330000000    -0.00313527 
C168     C      0.691570000000     0.566140000000     0.942840000000    -0.0878853  
C169     C      0.690410000000     0.478240000000     0.976790000000    -0.000427489
C170     C      0.689050000000     0.439670000000     0.014100000000    -0.0841398  
C171     C      0.677500000000     0.491110000000     0.946540000000    -0.0324724  
C172     C      0.687980000000     0.415520000000     0.012740000000     0.0732888  
C173     C      0.689280000000     0.415860000000     0.935860000000     0.0558833  
C174     C      0.677520000000     0.515370000000     0.947740000000    -0.0311346  
C175     C      0.689920000000     0.553110000000     0.980880000000     0.052167   
C176     C      0.690010000000     0.452390000000     0.975880000000     0.0487787  
C177     C      0.215370000000     0.756820000000     0.624940000000    -0.0745478  
C178     C      0.270330000000     0.708860000000     0.874840000000     0.0752429  
C179     C      0.305660000000     0.708670000000     0.834980000000     0.0765411  
C180     C      0.258740000000     0.719510000000     0.840500000000    -0.0871582  
C181     C      0.243040000000     0.754640000000     0.773130000000    -0.0313041  
C182     C      0.231880000000     0.765570000000     0.738560000000    -0.0323727  
C183     C      0.258910000000     0.736430000000     0.765790000000    -0.00262782 
C184     C      0.294600000000     0.719250000000     0.799990000000    -0.0861562  
C185     C      0.236260000000     0.758470000000     0.695870000000    -0.000642182
C186     C      0.221610000000     0.794020000000     0.657870000000    -0.0843118  
C187     C      0.252110000000     0.740260000000     0.688540000000    -0.0322277  
C188     C      0.210770000000     0.804490000000     0.622660000000     0.07171    
C189     C      0.204140000000     0.767600000000     0.589970000000     0.0537569  
C190     C      0.263330000000     0.729390000000     0.723090000000    -0.0310071  
C191     C      0.270880000000     0.724900000000     0.802510000000     0.0525759  
C192     C      0.224300000000     0.769950000000     0.659050000000     0.0481642  
C193     C      0.301980000000     0.740820000000     0.143590000000    -0.0743735  
C194     C      0.200370000000     0.781760000000     0.349800000000     0.0766976  
C195     C      0.231490000000     0.808510000000     0.358100000000     0.0747099  
C196     C      0.211880000000     0.771030000000     0.315470000000    -0.0873384  
C197     C      0.246730000000     0.743080000000     0.263510000000    -0.0316488  
C198     C      0.258020000000     0.731990000000     0.229270000000    -0.0323453  
C199     C      0.246360000000     0.767450000000     0.266290000000    -0.00301718 
C200     C      0.243460000000     0.798230000000     0.323680000000    -0.0873618  
C201     C      0.269170000000     0.745000000000     0.196850000000    -0.000746096
C202     C      0.270240000000     0.713770000000     0.140620000000    -0.0845092  
C203     C      0.269060000000     0.769390000000     0.199910000000    -0.0324737  
C204     C      0.281070000000     0.702730000000     0.106030000000     0.072254   
C205     C      0.312830000000     0.729350000000     0.108800000000     0.054609   
C206     C      0.257820000000     0.780500000000     0.234310000000    -0.0314514  
C207     C      0.233760000000     0.779120000000     0.302170000000     0.0523688  
C208     C      0.280590000000     0.733100000000     0.159780000000     0.0482562  
C209     C      0.438930000000     0.702670000000     0.968410000000    -0.0724775  
C210     C      0.588460000000     0.667560000000     0.955450000000     0.0750099  
C211     C      0.590540000000     0.697620000000     0.007680000000     0.0757094  
C212     C      0.564160000000     0.668450000000     0.956150000000    -0.0876609  
C213     C      0.513920000000     0.663840000000     0.984020000000    -0.0310399  
C214     C      0.489600000000     0.664230000000     0.985660000000    -0.0326891  
C215     C      0.526790000000     0.684620000000     0.985820000000    -0.00281471 
C216     C      0.566230000000     0.698910000000     0.009340000000    -0.0864335  
C217     C      0.477510000000     0.685390000000     0.989340000000     0.000352362
C218     C      0.439290000000     0.668830000000     0.013570000000    -0.0837464  
C219     C      0.490370000000     0.706170000000     0.991450000000    -0.0324978  
C220     C      0.415030000000     0.668610000000     0.012740000000     0.0741969  
C221     C      0.414430000000     0.702490000000     0.968670000000     0.0560914  
C222     C      0.514730000000     0.705790000000     0.989670000000    -0.0303192  
C223     C      0.552700000000     0.684080000000     0.983640000000     0.0525066  
C224     C      0.451580000000     0.685670000000     0.990520000000     0.0485408  
C225     C      0.291510000000     0.293610000000     0.790750000000    -0.0733587  
C226     C      0.200220000000     0.214630000000     0.617570000000     0.0774565  
C227     C      0.236420000000     0.202350000000     0.588370000000     0.0761418  
C228     C      0.211560000000     0.225000000000     0.652470000000    -0.0849807  
C229     C      0.239530000000     0.234350000000     0.733920000000    -0.0310413  
C230     C      0.250880000000     0.245650000000     0.767870000000    -0.0320086  
C231     C      0.248280000000     0.235750000000     0.691570000000    -0.00226905 
C232     C      0.248330000000     0.212610000000     0.622770000000    -0.0866856  
C233     C      0.271200000000     0.258680000000     0.760230000000    -0.000189274
C234     C      0.285990000000     0.260330000000     0.836180000000    -0.0843345  
C235     C      0.280040000000     0.259960000000     0.717940000000    -0.0324385  
C236     C      0.296870000000     0.272230000000     0.869740000000     0.0715442  
C237     C      0.302680000000     0.305310000000     0.824800000000     0.054366   
C238     C      0.268730000000     0.248600000000     0.684010000000    -0.0305644  
C239     C      0.235920000000     0.224210000000     0.655280000000     0.0529893  
C240     C      0.283020000000     0.271040000000     0.796230000000     0.0481066  
C241     C      0.267060000000     0.302140000000     0.142530000000    -0.0733191  
C242     C      0.226700000000     0.201000000000     0.349650000000     0.0746389  
C243     C      0.199220000000     0.231550000000     0.356650000000     0.0746036  
C244     C      0.237560000000     0.212500000000     0.315440000000    -0.0878065  
C245     C      0.265190000000     0.247190000000     0.262560000000    -0.0308626  
C246     C      0.276190000000     0.258480000000     0.228220000000    -0.0324066  
C247     C      0.240740000000     0.246630000000     0.265460000000    -0.00303076 
C248     C      0.209630000000     0.243520000000     0.322410000000    -0.0872076  
C249     C      0.263030000000     0.269460000000     0.195870000000     0.000301877
C250     C      0.294060000000     0.270400000000     0.139070000000    -0.0825054  
C251     C      0.238570000000     0.269170000000     0.199040000000    -0.0325605  
C252     C      0.304950000000     0.281070000000     0.104170000000     0.0740492  
C253     C      0.278390000000     0.312850000000     0.107420000000     0.0551829  
C254     C      0.227550000000     0.257890000000     0.233480000000    -0.0307973  
C255     C      0.229130000000     0.234070000000     0.301500000000     0.0523335  
C256     C      0.274830000000     0.280820000000     0.158630000000     0.0486118  
C257     C      0.443290000000     0.304570000000     0.008990000000    -0.0717638  
C258     C      0.591870000000     0.339980000000     0.001460000000     0.0752572  
C259     C      0.594950000000     0.302990000000     0.968150000000     0.0751243  
C260     C      0.567590000000     0.338690000000     0.000190000000    -0.0877857  
C261     C      0.517810000000     0.337260000000     0.967080000000    -0.0305926  
C262     C      0.493510000000     0.336160000000     0.965140000000    -0.0322041  
C263     C      0.530870000000     0.317790000000     0.979930000000    -0.00322283 
C264     C      0.570670000000     0.301060000000     0.966600000000    -0.0875092  
C265     C      0.481700000000     0.315610000000     0.976250000000     0.000577256
C266     C      0.443540000000     0.324280000000     0.940720000000    -0.082954   
C267     C      0.494760000000     0.296100000000     0.988920000000    -0.0329055  
C268     C      0.419250000000     0.324260000000     0.941130000000     0.0764288  
C269     C      0.418790000000     0.304510000000     0.008680000000     0.0573643  
C270     C      0.519090000000     0.297150000000     0.990590000000    -0.0304459  
C271     C      0.556690000000     0.319140000000     0.982390000000     0.0527254  
C272     C      0.455840000000     0.314750000000     0.975240000000     0.0492345  
C273     C      0.348370000000     0.440080000000     0.990340000000    -0.0730892  
C274     C      0.315410000000     0.588090000000     0.010970000000     0.0748321  
C275     C      0.328930000000     0.588240000000     0.938590000000     0.0744873  
C276     C      0.314980000000     0.563820000000     0.011140000000    -0.0871953  
C277     C      0.305040000000     0.512530000000     0.994040000000    -0.0305824  
C278     C      0.306320000000     0.488260000000     0.995270000000    -0.0320899  
C279     C      0.322960000000     0.525630000000     0.974820000000    -0.00296679 
C280     C      0.328810000000     0.563970000000     0.937710000000    -0.0874915  
C281     C      0.325640000000     0.476590000000     0.977600000000     0.000628567
C282     C      0.308210000000     0.436880000000     0.969930000000    -0.0818543  
C283     C      0.343460000000     0.489690000000     0.958150000000    -0.0323537  
C284     C      0.310380000000     0.412760000000     0.970680000000     0.0772644  
C285     C      0.350350000000     0.415740000000     0.990790000000     0.0573497  
C286     C      0.342120000000     0.513910000000     0.956710000000    -0.0302773  
C287     C      0.322010000000     0.551440000000     0.974410000000     0.0524251  
C288     C      0.327350000000     0.450840000000     0.979570000000     0.0497265  
Cd1      Cd     0.333490000000     0.327800000000     0.976770000000     0.522611   
Cd2      Cd     0.329010000000     0.674020000000     0.979950000000     0.516417   
Cd3      Cd     0.679370000000     0.329840000000     0.982820000000     0.516862   
Cd4      Cd     0.675590000000     0.674830000000     0.982840000000     0.511464   
Cd5      Cd     0.830660000000     0.172680000000     0.482760000000     0.516794   
Cd6      Cd     0.828160000000     0.828590000000     0.483060000000     0.516153   
Cd7      Cd     0.175060000000     0.829020000000     0.480030000000     0.513785   
Cd8      Cd     0.176900000000     0.175130000000     0.476990000000     0.516569   
H1       H      0.150130000000     0.907110000000     0.437220000000     0.0348214  
H2       H      0.199830000000     0.098440000000     0.427070000000     0.037675   
H3       H      0.145990000000     0.979810000000     0.494160000000     0.0442678  
H4       H      0.219140000000     0.023690000000     0.468440000000     0.0445082  
H5       H      0.201920000000     0.056650000000     0.426250000000     0.0576986  
H6       H      0.219560000000     0.981210000000     0.464480000000     0.0433247  
H7       H      0.161250000000     0.053760000000     0.542310000000     0.0681205  
H8       H      0.151040000000     0.949220000000     0.438680000000     0.0581425  
H9       H      0.214640000000     0.946660000000     0.512640000000     0.0590083  
H10      H      0.145490000000     0.022150000000     0.497310000000     0.0460355  
H11      H      0.213260000000     0.904410000000     0.510400000000     0.0359368  
H12      H      0.121100000000     0.108250000000     0.515120000000     0.151351   
H13      H      0.098100000000     0.832090000000     0.550630000000     0.0366844  
H14      H      0.904440000000     0.805710000000     0.428750000000     0.0377773  
H15      H      0.023350000000     0.804510000000     0.551900000000     0.0451887  
H16      H      0.980430000000     0.830240000000     0.421440000000     0.0444849  
H17      H      0.946270000000     0.802650000000     0.426900000000     0.058299   
H18      H      0.022920000000     0.829920000000     0.420540000000     0.0430836  
H19      H      0.950580000000     0.836350000000     0.549910000000     0.0685644  
H20      H      0.055900000000     0.830220000000     0.551980000000     0.0596843  
H21      H      0.056490000000     0.805530000000     0.420310000000     0.058818   
H22      H      0.980860000000     0.805380000000     0.552920000000     0.0473773  
H23      H      0.098630000000     0.808380000000     0.419710000000     0.0372503  
H24      H      0.895310000000     0.812800000000     0.605520000000     0.160654   
H25      H      0.827750000000     0.903770000000     0.406850000000     0.0359108  
H26      H      0.813030000000     0.095690000000     0.537910000000     0.0383482  
H27      H      0.843810000000     0.979810000000     0.425170000000     0.0441853  
H28      H      0.783700000000     0.022050000000     0.509610000000     0.0452693  
H29      H      0.810120000000     0.054000000000     0.536530000000     0.0586474  
H30      H      0.783900000000     0.979650000000     0.510070000000     0.0435122  
H31      H      0.816800000000     0.054490000000     0.398720000000     0.0668296  
H32      H      0.824330000000     0.945680000000     0.402250000000     0.0588739  
H33      H      0.805580000000     0.947830000000     0.537290000000     0.0594938  
H34      H      0.843090000000     0.022120000000     0.423890000000     0.0451776  
H35      H      0.808280000000     0.905860000000     0.540170000000     0.0383597  
H36      H      0.855140000000     0.100920000000     0.369450000000     0.151476   
H37      H      0.905010000000     0.209110000000     0.440640000000     0.0367976  
H38      H      0.099410000000     0.158020000000     0.423360000000     0.0365789  
H39      H      0.981400000000     0.221430000000     0.478090000000     0.0447698  
H40      H      0.026160000000     0.147730000000     0.472660000000     0.045034   
H41      H      0.057480000000     0.158270000000     0.423500000000     0.0575695  
H42      H      0.983780000000     0.146380000000     0.476330000000     0.043639   
H43      H      0.057660000000     0.214350000000     0.514870000000     0.06874    
H44      H      0.947190000000     0.211500000000     0.436640000000     0.0592188  
H45      H      0.952240000000     0.154100000000     0.525780000000     0.0592964  
H46      H      0.023770000000     0.222780000000     0.472450000000     0.0471333  
H47      H      0.910060000000     0.151870000000     0.528180000000     0.0356039  
H48      H      0.116930000000     0.243850000000     0.464550000000     0.153639   
H49      H      0.688510000000     0.744820000000     0.893480000000     0.0354883  
H50      H      0.759620000000     0.799280000000     0.557870000000     0.0362645  
H51      H      0.745460000000     0.774950000000     0.804960000000     0.044666   
H52      H      0.738190000000     0.743080000000     0.656620000000     0.0446886  
H53      H      0.737590000000     0.782160000000     0.616260000000     0.0581238  
H54      H      0.718220000000     0.723700000000     0.716500000000     0.0437611  
H55      H      0.798510000000     0.782860000000     0.696180000000     0.0684727  
H56      H      0.704600000000     0.765770000000     0.832000000000     0.0589133  
H57      H      0.732050000000     0.701350000000     0.782090000000     0.0595821  
H58      H      0.765310000000     0.794370000000     0.745090000000     0.0469179  
H59      H      0.715920000000     0.681000000000     0.843860000000     0.036656   
H60      H      0.824800000000     0.842410000000     0.645260000000     0.153949   
H61      H      0.812930000000     0.758060000000     0.396510000000     0.0360257  
H62      H      0.744720000000     0.710980000000     0.052760000000     0.0354172  
H63      H      0.758940000000     0.725290000000     0.305420000000     0.0435348  
H64      H      0.762630000000     0.761300000000     0.160070000000     0.0442107  
H65      H      0.765860000000     0.727110000000     0.113860000000     0.0574811  
H66      H      0.781050000000     0.780800000000     0.220930000000     0.0433961  
H67      H      0.707570000000     0.710970000000     0.196770000000     0.0606036  
H68      H      0.796920000000     0.736950000000     0.335310000000     0.0584274  
H69      H      0.768510000000     0.801100000000     0.286130000000     0.0587777  
H70      H      0.741120000000     0.705360000000     0.244150000000     0.0436593  
H71      H      0.784950000000     0.821630000000     0.347230000000     0.0359454  
H72      H      0.684490000000     0.662070000000     0.176280000000     0.149127   
H73      H      0.833880000000     0.222450000000     0.612650000000     0.0364292  
H74      H      0.684860000000     0.288250000000     0.847290000000     0.0396376  
H75      H      0.798380000000     0.234350000000     0.746320000000     0.044835   
H76      H      0.722870000000     0.274220000000     0.721900000000     0.0465821  
H77      H      0.703270000000     0.268400000000     0.788320000000     0.0588895  
H78      H      0.741150000000     0.252920000000     0.662880000000     0.0479938  
H79      H      0.770080000000     0.292750000000     0.830870000000     0.0676293  
H80      H      0.816630000000     0.243190000000     0.673300000000     0.0608807  
H81      H      0.750440000000     0.211060000000     0.645360000000     0.0616919  
H82      H      0.779830000000     0.255050000000     0.805960000000     0.0451728  
H83      H      0.768180000000     0.190560000000     0.585220000000     0.0431231  
H84      H      0.768820000000     0.292840000000     0.947140000000     0.151658   
H85      H      0.731030000000     0.325510000000     0.108680000000     0.0395637  
H86      H      0.818810000000     0.194760000000     0.332750000000     0.0435134  
H87      H      0.739420000000     0.294010000000     0.243350000000     0.0448485  
H88      H      0.762570000000     0.211130000000     0.232600000000     0.0469692  
H89      H      0.799960000000     0.212980000000     0.272220000000     0.0603082  
H90      H      0.743900000000     0.229940000000     0.171020000000     0.0445655  
H91      H      0.751020000000     0.245480000000     0.357790000000     0.0686904  
H92      H      0.749110000000     0.306810000000     0.170220000000     0.0602938  
H93      H      0.706070000000     0.246380000000     0.149080000000     0.0595607  
H94      H      0.758710000000     0.275430000000     0.304310000000     0.0468968  
H95      H      0.688520000000     0.265540000000     0.087210000000     0.0355772  
H96      H      0.795540000000     0.255520000000     0.455290000000     0.153629   
H97      H      0.691180000000     0.599730000000     0.914240000000     0.0367622  
H98      H      0.686900000000     0.406700000000     0.043620000000     0.0392558  
H99      H      0.667090000000     0.524750000000     0.924410000000     0.0444426  
H100     H      0.713760000000     0.480890000000     0.031640000000     0.0451971  
H101     H      0.688560000000     0.448300000000     0.045180000000     0.0582855  
H102     H      0.713520000000     0.523300000000     0.034000000000     0.0441787  
H103     H      0.691630000000     0.449960000000     0.906900000000     0.0677587  
H104     H      0.694000000000     0.557700000000     0.911880000000     0.0597326  
H105     H      0.685780000000     0.555450000000     0.050290000000     0.0591401  
H106     H      0.666990000000     0.482450000000     0.922390000000     0.0453396  
H107     H      0.683170000000     0.597630000000     0.051560000000     0.0382678  
H108     H      0.653770000000     0.401860000000     0.871970000000     0.152296   
H109     H      0.324070000000     0.704760000000     0.831860000000     0.042572   
H110     H      0.209660000000     0.823310000000     0.623160000000     0.0381258  
H111     H      0.275290000000     0.715280000000     0.716350000000     0.0449293  
H112     H      0.219610000000     0.779420000000     0.745300000000     0.0447181  
H113     H      0.228340000000     0.804860000000     0.683590000000     0.0584162  
H114     H      0.239430000000     0.760640000000     0.805610000000     0.0442134  
H115     H      0.216780000000     0.738080000000     0.626180000000     0.0671434  
H116     H      0.304700000000     0.723330000000     0.771410000000     0.0610539  
H117     H      0.240320000000     0.723290000000     0.843600000000     0.059123   
H118     H      0.256040000000     0.734530000000     0.656010000000     0.0455268  
H119     H      0.260320000000     0.705000000000     0.903680000000     0.035641   
H120     H      0.222100000000     0.745260000000     0.510610000000     0.151811   
H121     H      0.239660000000     0.823090000000     0.374300000000     0.0352892  
H122     H      0.271940000000     0.687990000000     0.092190000000     0.0385389  
H123     H      0.257630000000     0.799310000000     0.235320000000     0.0439722  
H124     H      0.258170000000     0.713170000000     0.228400000000     0.0450843  
H125     H      0.253540000000     0.707330000000     0.151770000000     0.0580944  
H126     H      0.238430000000     0.732530000000     0.288070000000     0.0452927  
H127     H      0.310430000000     0.755490000000     0.158850000000     0.0670584  
H128     H      0.260420000000     0.804930000000     0.314580000000     0.0592251  
H129     H      0.203580000000     0.756540000000     0.299280000000     0.0598038  
H130     H      0.277250000000     0.779940000000     0.175210000000     0.0451423  
H131     H      0.183500000000     0.774870000000     0.359130000000     0.0400218  
H132     H      0.329300000000     0.765430000000     0.047700000000     0.153714   
H133     H      0.600390000000     0.709180000000     0.028440000000     0.0401365  
H134     H      0.406500000000     0.654720000000     0.030390000000     0.0389483  
H135     H      0.524070000000     0.722130000000     0.990770000000     0.0450514  
H136     H      0.480260000000     0.647920000000     0.983470000000     0.0445452  
H137     H      0.448350000000     0.655680000000     0.032110000000     0.0591276  
H138     H      0.522630000000     0.647190000000     0.981690000000     0.0437785  
H139     H      0.448200000000     0.715970000000     0.950620000000     0.0683355  
H140     H      0.558130000000     0.711120000000     0.031370000000     0.0605629  
H141     H      0.554450000000     0.656980000000     0.935070000000     0.0586913  
H142     H      0.481630000000     0.722750000000     0.994800000000     0.0482612  
H143     H      0.596600000000     0.655090000000     0.933920000000     0.0351964  
H144     H      0.388230000000     0.741610000000     0.004180000000     0.165526   
H145     H      0.246660000000     0.193600000000     0.563800000000     0.0363058  
H146     H      0.298400000000     0.263060000000     0.900200000000     0.0378095  
H147     H      0.275800000000     0.250220000000     0.651710000000     0.0452297  
H148     H      0.243530000000     0.244460000000     0.800030000000     0.0456454  
H149     H      0.280020000000     0.242710000000     0.841600000000     0.0584212  
H150     H      0.223950000000     0.224400000000     0.740900000000     0.0458858  
H151     H      0.289260000000     0.302110000000     0.759870000000     0.0689111  
H152     H      0.267160000000     0.211310000000     0.623990000000     0.0592427  
H153     H      0.201290000000     0.234010000000     0.676620000000     0.0628384  
H154     H      0.295800000000     0.269650000000     0.711060000000     0.0468848  
H155     H      0.181370000000     0.215850000000     0.616390000000     0.0469177  
H156     H      0.350570000000     0.321680000000     0.810170000000     0.153278   
H157     H      0.184270000000     0.239510000000     0.372240000000     0.0371348  
H158     H      0.319630000000     0.271880000000     0.090120000000     0.0459549  
H159     H      0.208690000000     0.257550000000     0.234520000000     0.0444144  
H160     H      0.295060000000     0.258750000000     0.227210000000     0.0471435  
H161     H      0.300530000000     0.253750000000     0.150150000000     0.0601771  
H162     H      0.275870000000     0.239060000000     0.287090000000     0.0447063  
H163     H      0.252440000000     0.310600000000     0.158070000000     0.0678556  
H164     H      0.202670000000     0.260240000000     0.312910000000     0.0601754  
H165     H      0.252360000000     0.204390000000     0.299770000000     0.0587722  
H166     H      0.227920000000     0.277220000000     0.174390000000     0.0457716  
H167     H      0.233800000000     0.184350000000     0.359430000000     0.0363044  
H168     H      0.242680000000     0.328730000000     0.045380000000     0.153162   
H169     H      0.605180000000     0.288770000000     0.955130000000     0.0364775  
H170     H      0.410620000000     0.332460000000     0.913980000000     0.0424794  
H171     H      0.528670000000     0.281910000000     0.000870000000     0.0447163  
H172     H      0.483930000000     0.351540000000     0.955600000000     0.048114   
H173     H      0.452620000000     0.331910000000     0.913500000000     0.0600531  
H174     H      0.526390000000     0.353330000000     0.958220000000     0.044892   
H175     H      0.452630000000     0.296890000000     0.035760000000     0.0693052  
H176     H      0.562930000000     0.285710000000     0.952310000000     0.0591695  
H177     H      0.557420000000     0.352900000000     0.013340000000     0.0600616  
H178     H      0.486150000000     0.279960000000     0.997310000000     0.0469863  
H179     H      0.599600000000     0.355470000000     0.015350000000     0.0356929  
H180     H      0.391820000000     0.261080000000     0.009460000000     0.152851   
H181     H      0.334500000000     0.597280000000     0.909640000000     0.0361247  
H182     H      0.294880000000     0.402820000000     0.962870000000     0.0470363  
H183     H      0.356330000000     0.523490000000     0.942060000000     0.0448366  
H184     H      0.292370000000     0.478640000000     0.010670000000     0.0476521  
H185     H      0.291640000000     0.444530000000     0.961060000000     0.0622892  
H186     H      0.289960000000     0.521040000000     0.007960000000     0.0449531  
H187     H      0.363250000000     0.450810000000     0.998340000000     0.0690886  
H188     H      0.334050000000     0.555080000000     0.908410000000     0.0594729  
H189     H      0.309770000000     0.554820000000     0.040320000000     0.0601237  
H190     H      0.358440000000     0.481200000000     0.943800000000     0.0472764  
H191     H      0.310200000000     0.597010000000     0.040290000000     0.0371695  
H192     H      0.387420000000     0.396610000000     0.935230000000     0.155129   
N1       N      0.179100000000     0.100910000000     0.484890000000    -0.170897   
N2       N      0.181500000000     0.902720000000     0.474050000000    -0.179608   
N3       N      0.902580000000     0.822900000000     0.490490000000    -0.169779   
N4       N      0.101390000000     0.820570000000     0.485010000000    -0.178969   
N5       N      0.817080000000     0.099870000000     0.469190000000    -0.170396   
N6       N      0.818410000000     0.901820000000     0.473860000000    -0.179137   
N7       N      0.103370000000     0.185920000000     0.469110000000    -0.170411   
N8       N      0.904500000000     0.180220000000     0.484400000000    -0.17942    
N9       N      0.792080000000     0.801010000000     0.592450000000    -0.171306   
N10      N      0.701170000000     0.711450000000     0.873210000000    -0.1794     
N11      N      0.714320000000     0.702030000000     0.089460000000    -0.170523   
N12      N      0.800130000000     0.791350000000     0.376270000000    -0.179218   
N13      N      0.716510000000     0.301720000000     0.874920000000    -0.169745   
N14      N      0.802260000000     0.205120000000     0.594470000000    -0.177863   
N15      N      0.796240000000     0.209440000000     0.381200000000    -0.16973    
N16      N      0.708520000000     0.296860000000     0.093480000000    -0.179107   
N17      N      0.687660000000     0.403470000000     0.974300000000    -0.169564   
N18      N      0.686730000000     0.601680000000     0.983000000000    -0.178832   
N19      N      0.202470000000     0.791700000000     0.588380000000    -0.170393   
N20      N      0.293630000000     0.703610000000     0.872140000000    -0.178352   
N21      N      0.301990000000     0.710390000000     0.089510000000    -0.16995    
N22      N      0.210180000000     0.800210000000     0.371170000000    -0.178682   
N23      N      0.402520000000     0.684690000000     0.989450000000    -0.170173   
N24      N      0.601530000000     0.681880000000     0.981280000000    -0.179377   
N25      N      0.304830000000     0.294650000000     0.864870000000    -0.170865   
N26      N      0.212570000000     0.203530000000     0.585660000000    -0.17741    
N27      N      0.297260000000     0.301940000000     0.087740000000    -0.168317   
N28      N      0.207760000000     0.210510000000     0.370230000000    -0.179208   
N29      N      0.406830000000     0.315310000000     0.975320000000    -0.169698   
N30      N      0.605430000000     0.322380000000     0.985180000000    -0.179443   
N31      N      0.331080000000     0.402030000000     0.981060000000    -0.168318   
N32      N      0.322600000000     0.600180000000     0.975140000000    -0.179422   
O1       O      0.326950000000     0.300940000000     0.037200000000    -0.229829   
O2       O      0.318900000000     0.326800000000     0.901930000000    -0.223416   
O3       O      0.370800000000     0.316280000000     0.009100000000    -0.216098   
O4       O      0.314780000000     0.366110000000     0.965880000000    -0.227081   
O5       O      0.348480000000     0.366420000000     0.994980000000    -0.222685   
O6       O      0.372120000000     0.325050000000     0.942040000000    -0.238632   
O7       O      0.302070000000     0.328300000000     0.031490000000    -0.224542   
O8       O      0.318240000000     0.294420000000     0.935280000000    -0.248656   
O9       O      0.319160000000     0.635490000000     0.009880000000    -0.243618   
O10      O      0.366070000000     0.692870000000     0.960880000000    -0.218726   
O11      O      0.301790000000     0.680060000000     0.040430000000    -0.240633   
O12      O      0.294410000000     0.688850000000     0.941390000000    -0.249327   
O13      O      0.326440000000     0.689030000000     0.905510000000    -0.234283   
O14      O      0.328110000000     0.705960000000     0.032740000000    -0.224935   
O15      O      0.330750000000     0.635690000000     0.943970000000    -0.250136   
O16      O      0.368140000000     0.666660000000     0.009550000000    -0.244421   
O17      O      0.682600000000     0.312080000000     0.910570000000    -0.239188   
O18      O      0.705030000000     0.327520000000     0.046130000000    -0.238556   
O19      O      0.642370000000     0.308930000000     0.969210000000    -0.242424   
O20      O      0.682650000000     0.366920000000     0.943630000000    -0.224386   
O21      O      0.685170000000     0.368980000000     0.012330000000    -0.238671   
O22      O      0.639400000000     0.342040000000     0.000730000000    -0.250161   
O23      O      0.714770000000     0.318910000000     0.942650000000    -0.227073   
O24      O      0.683240000000     0.297750000000     0.035570000000    -0.250243   
O25      O      0.696630000000     0.678400000000     0.914270000000    -0.242571   
O26      O      0.681230000000     0.685860000000     0.058530000000    -0.202135   
O27      O      0.684570000000     0.637280000000     0.949300000000    -0.241121   
O28      O      0.635910000000     0.665100000000     0.958710000000    -0.251874   
O29      O      0.638110000000     0.693090000000     0.004200000000    -0.238435   
O30      O      0.679840000000     0.636440000000     0.018080000000    -0.243782   
O31      O      0.680660000000     0.709830000000     0.937390000000    -0.248654   
O32      O      0.711270000000     0.690920000000     0.017920000000    -0.244336   
O33      O      0.819850000000     0.133670000000     0.509400000000    -0.244961   
O34      O      0.867710000000     0.191760000000     0.463240000000    -0.243968   
O35      O      0.800110000000     0.180220000000     0.536310000000    -0.233072   
O36      O      0.799800000000     0.196910000000     0.451970000000    -0.225433   
O37      O      0.826160000000     0.186430000000     0.407430000000    -0.233942   
O38      O      0.832660000000     0.197760000000     0.547450000000    -0.246292   
O39      O      0.826400000000     0.136260000000     0.441840000000    -0.228706   
O40      O      0.870360000000     0.162540000000     0.506150000000    -0.249429   
O41      O      0.866470000000     0.834460000000     0.516790000000    -0.219749   
O42      O      0.828480000000     0.866250000000     0.444990000000    -0.24551    
O43      O      0.825660000000     0.809640000000     0.553990000000    -0.221967   
O44      O      0.820920000000     0.793140000000     0.440020000000    -0.245509   
O45      O      0.806390000000     0.824900000000     0.415290000000    -0.246112   
O46      O      0.792980000000     0.817920000000     0.524760000000    -0.247848   
O47      O      0.867090000000     0.816000000000     0.457200000000    -0.245497   
O48      O      0.816600000000     0.867070000000     0.510730000000    -0.242541   
O49      O      0.136780000000     0.818940000000     0.449790000000    -0.239858   
O50      O      0.194780000000     0.866500000000     0.494800000000    -0.243732   
O51      O      0.179250000000     0.802590000000     0.418460000000    -0.236176   
O52      O      0.188020000000     0.794060000000     0.518610000000    -0.230122   
O53      O      0.190380000000     0.825530000000     0.554620000000    -0.243644   
O54      O      0.207490000000     0.826630000000     0.427180000000    -0.249264   
O55      O      0.136780000000     0.829260000000     0.516490000000    -0.246799   
O56      O      0.163560000000     0.868130000000     0.456700000000    -0.252226   
O57      O      0.185150000000     0.135730000000     0.449350000000    -0.243655   
O58      O      0.139820000000     0.192870000000     0.498640000000    -0.216811   
O59      O      0.205100000000     0.179710000000     0.417580000000    -0.244198   
O60      O      0.211900000000     0.183720000000     0.520820000000    -0.247351   
O61      O      0.179250000000     0.195240000000     0.547090000000    -0.22732    
O62      O      0.180330000000     0.207420000000     0.424550000000    -0.246788   
O63      O      0.172170000000     0.137480000000     0.513890000000    -0.227793   
O64      O      0.137890000000     0.169580000000     0.444980000000    -0.247158   
O65      O      0.166140000000     0.115510000000     0.592330000000    -0.136284   
O66      O      0.130080000000     0.118380000000     0.534890000000    -0.241391   
O67      O      0.135730000000     0.080310000000     0.584720000000    -0.169293   
O68      O      0.889870000000     0.868750000000     0.558630000000    -0.136026   
O69      O      0.885390000000     0.826000000000     0.596390000000    -0.222577   
O70      O      0.924500000000     0.851480000000     0.606760000000    -0.16745    
O71      O      0.797390000000     0.122550000000     0.376920000000    -0.137959   
O72      O      0.844180000000     0.114230000000     0.369970000000    -0.241814   
O73      O      0.812470000000     0.083490000000     0.339360000000    -0.169619   
O74      O      0.117500000000     0.215520000000     0.566230000000    -0.132114   
O75      O      0.125620000000     0.238060000000     0.489970000000    -0.240417   
O76      O      0.086080000000     0.245790000000     0.535080000000    -0.168521   
O77      O      0.850490000000     0.788020000000     0.619580000000    -0.137084   
O78      O      0.836210000000     0.833160000000     0.628450000000    -0.226403   
O79      O      0.836620000000     0.804120000000     0.696870000000    -0.168012   
O80      O      0.665570000000     0.694540000000     0.084520000000    -0.085844   
O81      O      0.675690000000     0.662750000000     0.148820000000    -0.248493   
O82      O      0.660500000000     0.706780000000     0.169150000000    -0.164577   
O83      O      0.748420000000     0.346930000000     0.907550000000    -0.123622   
O84      O      0.761320000000     0.308100000000     0.952360000000    -0.241413   
O85      O      0.785490000000     0.322350000000     0.881990000000    -0.166096   
O86      O      0.754070000000     0.210020000000     0.463630000000    -0.136781   
O87      O      0.789220000000     0.241880000000     0.470900000000    -0.244959   
O88      O      0.747740000000     0.253810000000     0.436370000000    -0.170356   
O89      O      0.712560000000     0.383730000000     0.882520000000    -0.12519    
O90      O      0.665540000000     0.389270000000     0.872310000000    -0.240905   
O91      O      0.695890000000     0.422380000000     0.845970000000    -0.16697    
O92      O      0.163770000000     0.755500000000     0.543600000000    -0.138485   
O93      O      0.206100000000     0.750590000000     0.503860000000    -0.242513   
O94      O      0.192520000000     0.721300000000     0.567530000000    -0.168968   
O95      O      0.359940000000     0.718100000000     0.093960000000    -0.141546   
O96      O      0.339860000000     0.751930000000     0.044390000000    -0.237683   
O97      O      0.350300000000     0.759620000000     0.128430000000    -0.170308   
O98      O      0.388570000000     0.718770000000     0.897770000000    -0.136432   
O99      O      0.379820000000     0.737510000000     0.977320000000    -0.230716   
O100     O      0.419490000000     0.747750000000     0.934400000000    -0.167376   
O101     O      0.299750000000     0.353660000000     0.837310000000    -0.134886   
O102     O      0.342880000000     0.334150000000     0.827040000000    -0.240602   
O103     O      0.313410000000     0.338100000000     0.759580000000    -0.16858    
O104     O      0.289380000000     0.359870000000     0.093060000000    -0.133697   
O105     O      0.255970000000     0.339620000000     0.042590000000    -0.239938   
O106     O      0.247530000000     0.349920000000     0.126460000000    -0.167602   
O107     O      0.393610000000     0.306620000000     0.086550000000    -0.129656   
O108     O      0.383690000000     0.271580000000     0.029870000000    -0.241338   
O109     O      0.423800000000     0.271390000000     0.075360000000    -0.168918   
O110     O      0.378500000000     0.390150000000     0.047960000000    -0.12961    
O111     O      0.387230000000     0.386680000000     0.961340000000    -0.242767   
O112     O      0.398100000000     0.425700000000     0.005390000000    -0.169211   
S1       S      0.149940000000     0.100720000000     0.557620000000     0.275082   
S2       S      0.903750000000     0.844540000000     0.571870000000     0.276398   
S3       S      0.817860000000     0.102260000000     0.378710000000     0.275008   
S4       S      0.105300000000     0.225550000000     0.521520000000     0.275643   
S5       S      0.831800000000     0.805530000000     0.644180000000     0.277156   
S6       S      0.675980000000     0.690970000000     0.134830000000     0.254201   
S7       S      0.759040000000     0.320260000000     0.903190000000     0.275207   
S8       S      0.767010000000     0.232450000000     0.440140000000     0.274938   
S9       S      0.690830000000     0.402670000000     0.883840000000     0.274728   
S10      S      0.191540000000     0.748650000000     0.550890000000     0.275275   
S11      S      0.340940000000     0.739790000000     0.093720000000     0.273566   
S12      S      0.400430000000     0.726760000000     0.944200000000     0.275945   
S13      S      0.314710000000     0.333050000000     0.812200000000     0.275023   
S14      S      0.267780000000     0.340770000000     0.092210000000     0.275547   
S15      S      0.404830000000     0.288490000000     0.050530000000     0.275148   
S16      S      0.378710000000     0.404440000000     0.001540000000     0.275597   


