data_structure

_audit_creation_method RASPA-1.0
_audit_creation_date 2023-6-5
_audit_author_name 'Poobodin Mano'

_cell_length_a    57.133
_cell_length_b    57.4121
_cell_length_c    31.2987
_cell_angle_alpha 90.0416
_cell_angle_beta  89.9042
_cell_angle_gamma 90
_cell_volume      102663

_symmetry_cell_setting          triclinic
_symmetry_space_group_name_Hall 'P 1'
_symmetry_space_group_name_H-M  'P 1'
_symmetry_Int_Tables_number     1

_symmetry_equiv_pos_as_xyz 'x,y,z'

loop_
_atom_site_label
_atom_site_type_symbol
_atom_site_fract_x
_atom_site_fract_y
_atom_site_fract_z
_atom_site_charge
C1       C      0.381540000000     0.324010000000     0.979260000000     0.355773   
C2       C      0.307970000000     0.303670000000     0.049690000000     0.356695   
C3       C      0.325720000000     0.377380000000     0.981420000000     0.35419    
C4       C      0.308930000000     0.304240000000     0.907740000000     0.34541    
C5       C      0.312420000000     0.697250000000     0.051560000000     0.355767   
C6       C      0.328010000000     0.623740000000     0.979630000000     0.345941   
C7       C      0.308890000000     0.696390000000     0.908810000000     0.356471   
C8       C      0.383530000000     0.677910000000     0.973200000000     0.355551   
C9       C      0.629200000000     0.328280000000     0.976220000000     0.346328   
C10      C      0.702380000000     0.309920000000     0.904610000000     0.347227   
C11      C      0.684430000000     0.382740000000     0.976740000000     0.355161   
C12      C      0.701720000000     0.309530000000     0.047760000000     0.345484   
C13      C      0.686180000000     0.629040000000     0.981690000000     0.345601   
C14      C      0.700340000000     0.701310000000     0.898380000000     0.347362   
C15      C      0.630950000000     0.684120000000     0.968720000000     0.346622   
C16      C      0.704470000000     0.699940000000     0.046420000000     0.355325   
C17      C      0.809270000000     0.202650000000     0.546490000000     0.355924   
C18      C      0.827260000000     0.128670000000     0.477340000000     0.355691   
C19      C      0.808440000000     0.200710000000     0.403690000000     0.355127   
C20      C      0.882090000000     0.183670000000     0.474900000000     0.355578   
C21      C      0.810220000000     0.811040000000     0.546010000000     0.355757   
C22      C      0.883910000000     0.828830000000     0.472280000000     0.357721   
C23      C      0.811710000000     0.810550000000     0.400050000000     0.34783    
C24      C      0.827000000000     0.882330000000     0.474930000000     0.346663   
C25      C      0.203530000000     0.806170000000     0.406090000000     0.34574    
C26      C      0.131270000000     0.825520000000     0.481120000000     0.34725    
C27      C      0.202820000000     0.805690000000     0.553110000000     0.348105   
C28      C      0.188710000000     0.877750000000     0.476670000000     0.347418   
C29      C      0.198790000000     0.193560000000     0.401990000000     0.347931   
C30      C      0.188560000000     0.123580000000     0.474290000000     0.357787   
C31      C      0.202140000000     0.194710000000     0.552170000000     0.358755   
C32      C      0.129410000000     0.178200000000     0.481600000000     0.346677   
C33      C      0.188090000000     0.062770000000     0.436900000000    -0.161761   
C34      C      0.199910000000     0.913020000000     0.510860000000     0.0729892  
C35      C      0.185350000000     0.913840000000     0.439980000000     0.0729035  
C36      C      0.202020000000     0.937250000000     0.511020000000    -0.0882589  
C37      C      0.189520000000     0.988670000000     0.511240000000    -0.0364214  
C38      C      0.189690000000     0.013000000000     0.510860000000    -0.0273147  
C39      C      0.196710000000     0.975980000000     0.475090000000    -0.00177426 
C40      C      0.187280000000     0.938090000000     0.439010000000    -0.0881717  
C41      C      0.197070000000     0.025230000000     0.474340000000    -0.0165427  
C42      C      0.202460000000     0.064330000000     0.508970000000    -0.108319   
C43      C      0.204640000000     0.012540000000     0.438450000000    -0.0273958  
C44      C      0.200250000000     0.088530000000     0.508100000000     0.0831174  
C45      C      0.186110000000     0.087070000000     0.436820000000     0.243589   
C46      C      0.204450000000     0.988190000000     0.438810000000    -0.0365856  
C47      C      0.195520000000     0.950120000000     0.474930000000     0.049642   
C48      C      0.196090000000     0.051100000000     0.473290000000     0.0822977  
C49      C      0.945670000000     0.839660000000     0.445040000000    -0.162369   
C50      C      0.095520000000     0.809530000000     0.455480000000     0.0727232  
C51      C      0.094910000000     0.839370000000     0.507930000000     0.0728413  
C52      C      0.071070000000     0.808870000000     0.455060000000    -0.0882563  
C53      C      0.019520000000     0.803390000000     0.480890000000    -0.0364353  
C54      C      0.995050000000     0.803750000000     0.479670000000    -0.0280461  
C55      C      0.032330000000     0.824290000000     0.480030000000    -0.00224307 
C56      C      0.070480000000     0.839350000000     0.507960000000    -0.0885171  
C57      C      0.982950000000     0.825010000000     0.476980000000    -0.0168094  
C58      C      0.943450000000     0.812160000000     0.502780000000    -0.108211   
C59      C      0.995770000000     0.845890000000     0.476040000000    -0.027525   
C60      C      0.919060000000     0.813510000000     0.501110000000     0.0830562  
C61      C      0.921210000000     0.840420000000     0.443570000000     0.243756   
C62      C      0.020190000000     0.845540000000     0.477760000000    -0.0361922  
C63      C      0.058270000000     0.824040000000     0.481220000000     0.049784   
C64      C      0.957030000000     0.825520000000     0.474840000000     0.0825562  
C65      C      0.827970000000     0.067800000000     0.514440000000    -0.161075   
C66      C      0.817960000000     0.917760000000     0.439220000000     0.0741136  
C67      C      0.829880000000     0.918440000000     0.511750000000     0.0743433  
C68      C      0.816570000000     0.942050000000     0.438650000000    -0.0876838  
C69      C      0.830710000000     0.993200000000     0.440430000000    -0.0360211  
C70      C      0.830950000000     0.017540000000     0.440760000000    -0.0268977  
C71      C      0.821410000000     0.980710000000     0.475130000000    -0.00132639 
C72      C      0.828530000000     0.942720000000     0.512380000000    -0.0872833  
C73      C      0.821790000000     0.029980000000     0.475740000000    -0.0160169  
C74      C      0.818590000000     0.068920000000     0.439660000000    -0.107029   
C75      C      0.812180000000     0.017450000000     0.510170000000    -0.0269616  
C76      C      0.820080000000     0.093180000000     0.440890000000     0.0840048  
C77      C      0.829170000000     0.092160000000     0.514890000000     0.243939   
C78      C      0.812040000000     0.993110000000     0.509900000000    -0.0363796  
C79      C      0.822010000000     0.954850000000     0.475440000000     0.0501692  
C80      C      0.822680000000     0.055880000000     0.476640000000     0.0825154  
C81      C      0.943570000000     0.184980000000     0.439250000000    -0.161038   
C82      C      0.091920000000     0.160910000000     0.489840000000     0.0736046  
C83      C      0.094990000000     0.201330000000     0.475280000000     0.0729688  
C84      C      0.067550000000     0.162430000000     0.490240000000    -0.0878624  
C85      C      0.017250000000     0.173580000000     0.513210000000    -0.0361449  
C86      C      0.992830000000     0.174400000000     0.512100000000    -0.0270546  
C87      C      0.030630000000     0.185560000000     0.482590000000    -0.00156673 
C88      C      0.070610000000     0.203450000000     0.475280000000    -0.0878729  
C89      C      0.981200000000     0.187180000000     0.480280000000    -0.0161562  
C90      C      0.941830000000     0.189110000000     0.515610000000    -0.107493   
C91      C      0.994570000000     0.199420000000     0.449950000000    -0.0271568  
C92      C      0.917460000000     0.188210000000     0.513420000000     0.084325   
C93      C      0.919080000000     0.184150000000     0.437940000000     0.243724   
C94      C      0.019030000000     0.198670000000     0.451160000000    -0.0361844  
C95      C      0.056580000000     0.183860000000     0.482830000000     0.0499484  
C96      C      0.955210000000     0.187290000000     0.478320000000     0.082634   
C97      C      0.775730000000     0.802900000000     0.644460000000    -0.161124   
C98      C      0.720320000000     0.698660000000     0.831850000000     0.0730008  
C99      C      0.709810000000     0.735660000000     0.859600000000     0.0730571  
C100     C      0.730910000000     0.709140000000     0.796500000000    -0.0878896  
C101     C      0.764520000000     0.737120000000     0.741120000000    -0.0365052  
C102     C      0.775590000000     0.748060000000     0.706700000000    -0.0272975  
C103     C      0.742580000000     0.744900000000     0.755650000000    -0.00165453 
C104     C      0.720120000000     0.746710000000     0.824540000000    -0.0879734  
C105     C      0.764930000000     0.766980000000     0.685850000000    -0.0163515  
C106     C      0.789210000000     0.765770000000     0.618890000000    -0.107676   
C107     C      0.742910000000     0.774660000000     0.700300000000    -0.0272932  
C108     C      0.800250000000     0.777020000000     0.584870000000     0.082566   
C109     C      0.786790000000     0.813750000000     0.609810000000     0.243082   
C110     C      0.731900000000     0.763790000000     0.734850000000    -0.036629   
C111     C      0.730990000000     0.733440000000     0.792590000000     0.0496548  
C112     C      0.776760000000     0.778680000000     0.649280000000     0.0818257  
C113     C      0.747880000000     0.713670000000     0.129660000000    -0.161385   
C114     C      0.779230000000     0.805920000000     0.353390000000     0.0725738  
C115     C      0.813440000000     0.783200000000     0.343080000000     0.0726309  
C116     C      0.768510000000     0.795150000000     0.318510000000    -0.0880616  
C117     C      0.745380000000     0.760180000000     0.259560000000    -0.0364506  
C118     C      0.734830000000     0.749110000000     0.224780000000    -0.0282079  
C119     C      0.769260000000     0.766090000000     0.258410000000    -0.00192577 
C120     C      0.803220000000     0.772020000000     0.308150000000    -0.0880908  
C121     C      0.747940000000     0.743590000000     0.188110000000    -0.0165567  
C122     C      0.714630000000     0.739020000000     0.136870000000    -0.108252   
C123     C      0.771820000000     0.749400000000     0.186970000000    -0.0276438  
C124     C      0.704330000000     0.728020000000     0.101890000000     0.082876   
C125     C      0.737040000000     0.702740000000     0.094890000000     0.24285    
C126     C      0.782350000000     0.760570000000     0.221670000000    -0.0362025  
C127     C      0.780470000000     0.777910000000     0.295420000000     0.0494354  
C128     C      0.736680000000     0.731940000000     0.151090000000     0.0819919  
C129     C      0.795400000000     0.246110000000     0.629390000000    -0.161199   
C130     C      0.705720000000     0.277760000000     0.857060000000     0.0727164  
C131     C      0.730720000000     0.310430000000     0.848890000000     0.0728382  
C132     C      0.716090000000     0.266900000000     0.821860000000    -0.0880746  
C133     C      0.731660000000     0.254790000000     0.731700000000    -0.0364027  
C134     C      0.742100000000     0.244370000000     0.696070000000    -0.028116   
C135     C      0.745300000000     0.266860000000     0.761810000000    -0.00197736 
C136     C      0.741490000000     0.300070000000     0.813590000000    -0.0882301  
C137     C      0.766420000000     0.245780000000     0.689710000000    -0.0163693  
C138     C      0.770410000000     0.212740000000     0.637700000000    -0.107979   
C139     C      0.780070000000     0.257820000000     0.719850000000    -0.027651   
C140     C      0.781200000000     0.202530000000     0.602320000000     0.0829104  
C141     C      0.805840000000     0.235530000000     0.593810000000     0.242778   
C142     C      0.769630000000     0.268230000000     0.755480000000    -0.0362296  
C143     C      0.734180000000     0.278060000000     0.799570000000     0.0496209  
C144     C      0.777530000000     0.234740000000     0.651790000000     0.0818125  
C145     C      0.764960000000     0.214820000000     0.320820000000    -0.161408   
C146     C      0.733970000000     0.305500000000     0.095120000000     0.0723647  
C147     C      0.700650000000     0.281280000000     0.103250000000     0.0726605  
C148     C      0.744730000000     0.294840000000     0.130060000000    -0.0879395  
C149     C      0.768270000000     0.260120000000     0.189300000000    -0.0364639  
C150     C      0.778710000000     0.249420000000     0.224550000000    -0.0273517  
C151     C      0.744290000000     0.265600000000     0.189680000000    -0.0017124  
C152     C      0.710880000000     0.270270000000     0.138340000000    -0.0879765  
C153     C      0.765410000000     0.243940000000     0.261030000000    -0.0164719  
C154     C      0.798740000000     0.239350000000     0.312460000000    -0.107909   
C155     C      0.741430000000     0.249420000000     0.261400000000    -0.027402   
C156     C      0.808920000000     0.228470000000     0.347690000000     0.0830088  
C157     C      0.775530000000     0.204260000000     0.356200000000     0.24297    
C158     C      0.730990000000     0.260120000000     0.226150000000    -0.0365353  
C159     C      0.733180000000     0.277020000000     0.152220000000     0.0494131  
C160     C      0.776510000000     0.232560000000     0.298550000000     0.0820818  
C161     C      0.683030000000     0.444190000000     0.943080000000    -0.161416   
C162     C      0.670480000000     0.592530000000     0.003070000000     0.0724709  
C163     C      0.707000000000     0.594030000000     0.967120000000     0.0725434  
C164     C      0.671470000000     0.568250000000     0.004280000000    -0.0876473  
C165     C      0.683270000000     0.517610000000     0.020810000000    -0.0362335  
C166     C      0.683010000000     0.493280000000     0.019430000000    -0.0271386  
C167     C      0.691390000000     0.530590000000     0.985690000000    -0.00200563 
C168     C      0.708600000000     0.569740000000     0.967890000000    -0.0878071  
C169     C      0.690910000000     0.481320000000     0.982930000000    -0.016739   
C170     C      0.694990000000     0.441780000000     0.016520000000    -0.107506   
C171     C      0.699430000000     0.494290000000     0.948130000000    -0.0273689  
C172     C      0.693220000000     0.417570000000     0.014170000000     0.0828704  
C173     C      0.681570000000     0.419860000000     0.941480000000     0.24289    
C174     C      0.699630000000     0.518620000000     0.949460000000    -0.0364533  
C175     C      0.690600000000     0.556500000000     0.986280000000     0.0489002  
C176     C      0.689760000000     0.455450000000     0.980800000000     0.0814421  
C177     C      0.264110000000     0.712460000000     0.829520000000    -0.161352   
C178     C      0.235730000000     0.799480000000     0.598000000000     0.0727882  
C179     C      0.199900000000     0.780260000000     0.612810000000     0.07279    
C180     C      0.246200000000     0.788890000000     0.633260000000    -0.0881943  
C181     C      0.267410000000     0.753850000000     0.694180000000    -0.0361635  
C182     C      0.277790000000     0.743140000000     0.729420000000    -0.0279386  
C183     C      0.244220000000     0.761970000000     0.696360000000    -0.00194848 
C184     C      0.209830000000     0.769310000000     0.648260000000    -0.0881745  
C185     C      0.265210000000     0.740190000000     0.767650000000    -0.0163309  
C186     C      0.299350000000     0.734210000000     0.816490000000    -0.107501   
C187     C      0.241980000000     0.748170000000     0.769830000000    -0.0275267  
C188     C      0.309690000000     0.723230000000     0.851420000000     0.0842689  
C189     C      0.274990000000     0.701500000000     0.864190000000     0.243957   
C190     C      0.231620000000     0.758980000000     0.734610000000    -0.0360008  
C191     C      0.233270000000     0.773540000000     0.658880000000     0.0496991  
C192     C      0.276330000000     0.728850000000     0.805090000000     0.082506   
C193     C      0.298340000000     0.741310000000     0.133330000000    -0.161189   
C194     C      0.207820000000     0.773580000000     0.359810000000     0.0723903  
C195     C      0.230680000000     0.807500000000     0.348480000000     0.0724378  
C196     C      0.218420000000     0.762670000000     0.324870000000    -0.0879334  
C197     C      0.253480000000     0.739350000000     0.265770000000    -0.0363886  
C198     C      0.264370000000     0.728630000000     0.230920000000    -0.028014   
C199     C      0.247180000000     0.763010000000     0.264070000000    -0.00186112 
C200     C      0.241630000000     0.797110000000     0.313380000000    -0.0879582  
C201     C      0.269260000000     0.741310000000     0.193550000000    -0.0163074  
C202     C      0.274320000000     0.707420000000     0.143810000000    -0.107663   
C203     C      0.263000000000     0.764980000000     0.191860000000    -0.02747    
C204     C      0.285210000000     0.696960000000     0.108780000000     0.0835067  
C205     C      0.309120000000     0.730350000000     0.098480000000     0.243549   
C206     C      0.252070000000     0.775690000000     0.226690000000    -0.0361482  
C207     C      0.235590000000     0.774410000000     0.301180000000     0.0494527  
C208     C      0.280790000000     0.729880000000     0.156440000000     0.0821512  
C209     C      0.443670000000     0.678120000000     0.930550000000    -0.161524   
C210     C      0.594530000000     0.690380000000     0.003630000000     0.0730731  
C211     C      0.595390000000     0.682030000000     0.929440000000     0.0724394  
C212     C      0.570110000000     0.691040000000     0.003150000000    -0.0877214  
C213     C      0.518990000000     0.702840000000     0.988150000000    -0.0370934  
C214     C      0.494550000000     0.701900000000     0.988840000000    -0.0278359  
C215     C      0.531970000000     0.686490000000     0.964480000000    -0.00159216 
C216     C      0.570950000000     0.682520000000     0.927830000000    -0.08798    
C217     C      0.482520000000     0.684600000000     0.965870000000    -0.0164398  
C218     C      0.444420000000     0.686680000000     0.005710000000    -0.107647   
C219     C      0.495500000000     0.668410000000     0.941840000000    -0.0274417  
C220     C      0.420060000000     0.684850000000     0.006700000000     0.0833366  
C221     C      0.419250000000     0.676290000000     0.932450000000     0.243146   
C222     C      0.519930000000     0.669340000000     0.941150000000    -0.0366819  
C223     C      0.557990000000     0.686880000000     0.965040000000     0.0489194  
C224     C      0.456540000000     0.683230000000     0.967360000000     0.0817294  
C225     C      0.244520000000     0.226790000000     0.618420000000    -0.16169    
C226     C      0.280060000000     0.303650000000     0.853100000000     0.0726202  
C227     C      0.306210000000     0.271860000000     0.860610000000     0.0728758  
C228     C      0.269220000000     0.292760000000     0.818470000000    -0.0877036  
C229     C      0.241430000000     0.260170000000     0.761490000000    -0.0363745  
C230     C      0.230980000000     0.249370000000     0.726330000000    -0.0273095  
C231     C      0.265800000000     0.259110000000     0.767460000000    -0.0015633  
C232     C      0.295720000000     0.260440000000     0.826200000000    -0.0876992  
C233     C      0.244630000000     0.237200000000     0.696290000000    -0.0164455  
C234     C      0.212080000000     0.214530000000     0.661870000000    -0.107956   
C235     C      0.268980000000     0.235980000000     0.702450000000    -0.0272537  
C236     C      0.201990000000     0.204230000000     0.625910000000     0.0829637  
C237     C      0.234130000000     0.216150000000     0.582940000000     0.243258   
C238     C      0.279430000000     0.246840000000     0.737530000000    -0.0363928  
C239     C      0.277000000000     0.270880000000     0.804540000000     0.0494148  
C240     C      0.233600000000     0.226010000000     0.658440000000     0.0821688  
C241     C      0.295650000000     0.262020000000     0.136260000000    -0.161996   
C242     C      0.197860000000     0.222540000000     0.347710000000     0.0737967  
C243     C      0.228840000000     0.195080000000     0.349540000000     0.0743354  
C244     C      0.207930000000     0.233510000000     0.312320000000    -0.0875865  
C245     C      0.227300000000     0.245280000000     0.224070000000    -0.0365042  
C246     C      0.238250000000     0.256260000000     0.189530000000    -0.0271421  
C247     C      0.240550000000     0.237060000000     0.258750000000    -0.00143855 
C248     C      0.239390000000     0.205620000000     0.314260000000    -0.0881825  
C249     C      0.262680000000     0.259280000000     0.188930000000    -0.0166626  
C250     C      0.264760000000     0.290350000000     0.132660000000    -0.108081   
C251     C      0.275860000000     0.251220000000     0.223800000000    -0.0268837  
C252     C      0.276300000000     0.300990000000     0.098500000000     0.0834836  
C253     C      0.306920000000     0.273070000000     0.102120000000     0.24416    
C254     C      0.264940000000     0.240250000000     0.258270000000    -0.0364202  
C255     C      0.229070000000     0.225200000000     0.295410000000     0.0501584  
C256     C      0.274450000000     0.270670000000     0.152090000000     0.0828155  
C257     C      0.442730000000     0.323020000000     0.016040000000    -0.160723   
C258     C      0.593460000000     0.323650000000     0.938330000000     0.0733373  
C259     C      0.592960000000     0.327990000000     0.013680000000     0.0733112  
C260     C      0.569060000000     0.322320000000     0.937520000000    -0.0877967  
C261     C      0.517450000000     0.335040000000     0.944380000000    -0.0364642  
C262     C      0.492990000000     0.334560000000     0.944740000000    -0.027144   
C263     C      0.530310000000     0.322850000000     0.975400000000    -0.00188469 
C264     C      0.568560000000     0.326610000000     0.014060000000    -0.0875071  
C265     C      0.480820000000     0.321820000000     0.976050000000    -0.0165917  
C266     C      0.441730000000     0.320950000000     0.939380000000    -0.107598   
C267     C      0.493720000000     0.309400000000     0.006760000000    -0.026813   
C268     C      0.417320000000     0.321510000000     0.941040000000     0.0831217  
C269     C      0.418230000000     0.323390000000     0.016840000000     0.24419    
C270     C      0.518170000000     0.309950000000     0.006490000000    -0.0361667  
C271     C      0.556290000000     0.323850000000     0.975660000000     0.0493691  
C272     C      0.454780000000     0.321830000000     0.977140000000     0.0819233  
C273     C      0.324200000000     0.438070000000     0.019580000000    -0.160617   
C274     C      0.321510000000     0.588140000000     0.942670000000     0.0723759  
C275     C      0.328910000000     0.587770000000     0.017200000000     0.0727316  
C276     C      0.320120000000     0.563860000000     0.942100000000    -0.0882691  
C277     C      0.333730000000     0.512680000000     0.947390000000    -0.0365508  
C278     C      0.333480000000     0.488350000000     0.947700000000    -0.0273482  
C279     C      0.322390000000     0.525380000000     0.979760000000    -0.00214021 
C280     C      0.327480000000     0.563490000000     0.017830000000    -0.0877912  
C281     C      0.321760000000     0.476120000000     0.980260000000    -0.016593   
C282     C      0.320310000000     0.437340000000     0.943150000000    -0.107665   
C283     C      0.310200000000     0.488860000000     0.012400000000    -0.0268893  
C284     C      0.321360000000     0.413070000000     0.944290000000     0.0827276  
C285     C      0.324980000000     0.413690000000     0.019870000000     0.243646   
C286     C      0.310570000000     0.513210000000     0.012220000000    -0.0362609  
C287     C      0.323200000000     0.551220000000     0.979940000000     0.0491092  
C288     C      0.321950000000     0.450200000000     0.981020000000     0.0816397  
Cd1      Cd     0.330920000000     0.327220000000     0.979390000000     0.510984   
Cd2      Cd     0.333080000000     0.673860000000     0.978670000000     0.510919   
Cd3      Cd     0.679640000000     0.332490000000     0.976180000000     0.5095     
Cd4      Cd     0.681130000000     0.679000000000     0.973640000000     0.509113   
Cd5      Cd     0.831620000000     0.178970000000     0.475560000000     0.511773   
Cd6      Cd     0.833270000000     0.832470000000     0.473330000000     0.510239   
Cd7      Cd     0.181840000000     0.828020000000     0.479580000000     0.509218   
Cd8      Cd     0.179780000000     0.173100000000     0.478860000000     0.510254   
H1       H      0.178630000000     0.905220000000     0.411710000000     0.0338279  
H2       H      0.205160000000     0.097990000000     0.536730000000     0.0310177  
H3       H      0.210450000000     0.978930000000     0.410690000000     0.0422708  
H4       H      0.183410000000     0.022220000000     0.538810000000     0.0402175  
H5       H      0.209110000000     0.056040000000     0.537560000000     0.0608791  
H6       H      0.183130000000     0.979800000000     0.539470000000     0.0425294  
H7       H      0.182820000000     0.053130000000     0.408750000000     0.0847481  
H8       H      0.181810000000     0.947350000000     0.410600000000     0.0565252  
H9       H      0.208780000000     0.945830000000     0.539260000000     0.0562503  
H10      H      0.210790000000     0.021420000000     0.410050000000     0.0395329  
H11      H      0.205020000000     0.903720000000     0.539510000000     0.0341428  
H12      H      0.192140000000     0.100910000000     0.383040000000     0.158615   
H13      H      0.103690000000     0.851520000000     0.529040000000     0.0337346  
H14      H      0.909250000000     0.803080000000     0.523790000000     0.0320852  
H15      H      0.029610000000     0.861910000000     0.476710000000     0.0430856  
H16      H      0.985600000000     0.787400000000     0.480190000000     0.0397144  
H17      H      0.951620000000     0.801080000000     0.526460000000     0.0618127  
H18      H      0.028440000000     0.786770000000     0.482910000000     0.0424427  
H19      H      0.955690000000     0.850000000000     0.422560000000     0.0848815  
H20      H      0.061200000000     0.851180000000     0.529000000000     0.0568791  
H21      H      0.062250000000     0.796890000000     0.433710000000     0.0566729  
H22      H      0.986900000000     0.862540000000     0.474330000000     0.0425574  
H23      H      0.104820000000     0.797710000000     0.434410000000     0.0341842  
H24      H      0.909050000000     0.844710000000     0.387900000000     0.160172   
H25      H      0.835280000000     0.909740000000     0.540850000000     0.0371285  
H26      H      0.816850000000     0.102480000000     0.411330000000     0.0350038  
H27      H      0.804450000000     0.983980000000     0.536840000000     0.0430286  
H28      H      0.838810000000     0.026600000000     0.414010000000     0.0410854  
H29      H      0.814100000000     0.060480000000     0.409820000000     0.0621885  
H30      H      0.838360000000     0.984150000000     0.413430000000     0.0437426  
H31      H      0.831560000000     0.058330000000     0.543630000000     0.084902   
H32      H      0.833110000000     0.951950000000     0.541390000000     0.0577657  
H33      H      0.811170000000     0.950740000000     0.409580000000     0.0569901  
H34      H      0.804600000000     0.026460000000     0.537270000000     0.0399887  
H35      H      0.813720000000     0.908500000000     0.410040000000     0.0349677  
H36      H      0.819290000000     0.105690000000     0.567060000000     0.160468   
H37      H      0.105260000000     0.216880000000     0.469360000000     0.03453    
H38      H      0.907900000000     0.189530000000     0.543280000000     0.0349682  
H39      H      0.028840000000     0.207950000000     0.426920000000     0.0428109  
H40      H      0.983040000000     0.164610000000     0.535700000000     0.0411318  
H41      H      0.950120000000     0.191260000000     0.546460000000     0.062408   
H42      H      0.025660000000     0.163530000000     0.538120000000     0.0429032  
H43      H      0.953370000000     0.183340000000     0.409720000000     0.0851149  
H44      H      0.062830000000     0.220390000000     0.469830000000     0.0565751  
H45      H      0.057380000000     0.146780000000     0.495620000000     0.0575308  
H46      H      0.986130000000     0.209620000000     0.425280000000     0.040034   
H47      H      0.099680000000     0.143950000000     0.495460000000     0.0356302  
H48      H      0.906010000000     0.197790000000     0.388370000000     0.159803   
H49      H      0.701790000000     0.746560000000     0.883860000000     0.0339889  
H50      H      0.809640000000     0.766220000000     0.562150000000     0.0315575  
H51      H      0.714850000000     0.769980000000     0.744930000000     0.0423649  
H52      H      0.792700000000     0.741920000000     0.696920000000     0.0400876  
H53      H      0.790220000000     0.746960000000     0.620950000000     0.0606174  
H54      H      0.773360000000     0.722830000000     0.756870000000     0.0429771  
H55      H      0.766590000000     0.813560000000     0.667690000000     0.0843323  
H56      H      0.719970000000     0.765550000000     0.822950000000     0.0568191  
H57      H      0.738860000000     0.698220000000     0.772230000000     0.0563274  
H58      H      0.734000000000     0.788910000000     0.684550000000     0.03944    
H59      H      0.720680000000     0.679810000000     0.833720000000     0.034657   
H60      H      0.770900000000     0.840560000000     0.589940000000     0.159151   
H61      H      0.831020000000     0.778040000000     0.351980000000     0.0334465  
H62      H      0.687270000000     0.734270000000     0.091920000000     0.0323148  
H63      H      0.800680000000     0.765190000000     0.219390000000     0.0425554  
H64      H      0.716470000000     0.744560000000     0.226870000000     0.0393477  
H65      H      0.705470000000     0.753260000000     0.152260000000     0.0613093  
H66      H      0.734860000000     0.763790000000     0.287600000000     0.0417247  
H67      H      0.764880000000     0.707560000000     0.140130000000     0.08402    
H68      H      0.813010000000     0.758580000000     0.291660000000     0.0560456  
H69      H      0.751040000000     0.800530000000     0.309460000000     0.0559532  
H70      H      0.782300000000     0.745670000000     0.158920000000     0.0421131  
H71      H      0.769390000000     0.819170000000     0.370380000000     0.0336073  
H72      H      0.743830000000     0.670560000000     0.090490000000     0.159239   
H73      H      0.736800000000     0.327540000000     0.858550000000     0.0334917  
H74      H      0.775190000000     0.185360000000     0.592900000000     0.0316257  
H75      H      0.780690000000     0.277070000000     0.778410000000     0.0424741  
H76      H      0.731040000000     0.235530000000     0.673140000000     0.0391816  
H77      H      0.756810000000     0.203210000000     0.654340000000     0.0611095  
H78      H      0.712830000000     0.253720000000     0.735260000000     0.0421893  
H79      H      0.801140000000     0.263330000000     0.638960000000     0.0838664  
H80      H      0.755210000000     0.309450000000     0.797010000000     0.056188   
H81      H      0.710110000000     0.249740000000     0.812490000000     0.0562531  
H82      H      0.798890000000     0.258910000000     0.716260000000     0.0421105  
H83      H      0.691790000000     0.268540000000     0.873440000000     0.034005   
H84      H      0.815100000000     0.256870000000     0.550920000000     0.158044   
H85      H      0.683390000000     0.275510000000     0.093510000000     0.0341619  
H86      H      0.826180000000     0.234370000000     0.357210000000     0.031895   
H87      H      0.712550000000     0.264430000000     0.227760000000     0.0422498  
H88      H      0.797150000000     0.245110000000     0.222950000000     0.0403798  
H89      H      0.808190000000     0.253220000000     0.296540000000     0.0609322  
H90      H      0.778940000000     0.263780000000     0.161470000000     0.0424186  
H91      H      0.747850000000     0.208890000000     0.310680000000     0.0844927  
H92      H      0.701450000000     0.256360000000     0.154170000000     0.0564325  
H93      H      0.761870000000     0.300810000000     0.139990000000     0.0559999  
H94      H      0.730760000000     0.245780000000     0.289250000000     0.0393693  
H95      H      0.743450000000     0.319300000000     0.078980000000     0.033929   
H96      H      0.754010000000     0.194930000000     0.398940000000     0.158057   
H97      H      0.721200000000     0.603620000000     0.952310000000     0.0351307  
H98      H      0.697380000000     0.407770000000     0.042780000000     0.031711   
H99      H      0.705790000000     0.528030000000     0.921660000000     0.042257   
H100     H      0.676130000000     0.483870000000     0.046670000000     0.0397075  
H101     H      0.700600000000     0.449710000000     0.046200000000     0.0607792  
H102     H      0.677070000000     0.526250000000     0.049440000000     0.0418507  
H103     H      0.678510000000     0.454150000000     0.914890000000     0.0843517  
H104     H      0.723890000000     0.561430000000     0.954210000000     0.0562305  
H105     H      0.657000000000     0.558760000000     0.018340000000     0.0560082  
H106     H      0.705950000000     0.485650000000     0.919730000000     0.039455   
H107     H      0.655220000000     0.600900000000     0.016900000000     0.033297   
H108     H      0.689460000000     0.407110000000     0.887560000000     0.159724   
H109     H      0.181740000000     0.776450000000     0.605570000000     0.0336706  
H110     H      0.327560000000     0.728040000000     0.858990000000     0.0350545  
H111     H      0.213840000000     0.765330000000     0.737610000000     0.0426346  
H112     H      0.295600000000     0.736840000000     0.726530000000     0.0401443  
H113     H      0.309320000000     0.747040000000     0.798780000000     0.0623974  
H114     H      0.277490000000     0.755490000000     0.664990000000     0.0421118  
H115     H      0.246310000000     0.707730000000     0.821370000000     0.0843239  
H116     H      0.199260000000     0.757350000000     0.666800000000     0.0563222  
H117     H      0.264260000000     0.792960000000     0.640620000000     0.0562864  
H118     H      0.231930000000     0.746420000000     0.799030000000     0.0422338  
H119     H      0.246340000000     0.811260000000     0.579050000000     0.0339314  
H120     H      0.265180000000     0.670320000000     0.872450000000     0.160846   
H121     H      0.235940000000     0.825040000000     0.356980000000     0.0339753  
H122     H      0.279450000000     0.679590000000     0.100100000000     0.0329269  
H123     H      0.247130000000     0.793840000000     0.224060000000     0.0427339  
H124     H      0.269290000000     0.710470000000     0.233500000000     0.0394629  
H125     H      0.260630000000     0.698040000000     0.160480000000     0.0615956  
H126     H      0.250320000000     0.729170000000     0.294320000000     0.042018   
H127     H      0.304020000000     0.758610000000     0.142530000000     0.084207   
H128     H      0.255010000000     0.806730000000     0.296340000000     0.0562447  
H129     H      0.212960000000     0.745230000000     0.316240000000     0.0561999  
H130     H      0.266210000000     0.775150000000     0.163310000000     0.0422934  
H131     H      0.194610000000     0.763910000000     0.377260000000     0.0341243  
H132     H      0.341090000000     0.738240000000     0.091800000000     0.160359   
H133     H      0.604780000000     0.678430000000     0.900030000000     0.0332738  
H134     H      0.411480000000     0.687580000000     0.037240000000     0.0313509  
H135     H      0.529400000000     0.656260000000     0.923140000000     0.042217   
H136     H      0.485060000000     0.714860000000     0.007120000000     0.0404388  
H137     H      0.453690000000     0.690390000000     0.035080000000     0.0608793  
H138     H      0.527720000000     0.716470000000     0.005960000000     0.0426253  
H139     H      0.452420000000     0.675660000000     0.900140000000     0.0842885  
H140     H      0.562290000000     0.679540000000     0.897550000000     0.0561356  
H141     H      0.560810000000     0.694230000000     0.032770000000     0.0559839  
H142     H      0.486800000000     0.654640000000     0.924310000000     0.0394129  
H143     H      0.603210000000     0.693380000000     0.033930000000     0.0343287  
H144     H      0.406820000000     0.654000000000     0.894090000000     0.158446   
H145     H      0.320610000000     0.263160000000     0.876510000000     0.0350848  
H146     H      0.185300000000     0.195540000000     0.630220000000     0.0313951  
H147     H      0.298270000000     0.245860000000     0.740840000000     0.0423207  
H148     H      0.212210000000     0.250850000000     0.722370000000     0.0398856  
H149     H      0.203120000000     0.213230000000     0.692300000000     0.0610146  
H150     H      0.230360000000     0.269240000000     0.784180000000     0.042169   
H151     H      0.261010000000     0.235830000000     0.614270000000     0.084525   
H152     H      0.302110000000     0.243400000000     0.816980000000     0.0564583  
H153     H      0.255040000000     0.301660000000     0.802340000000     0.0562982  
H154     H      0.280010000000     0.226510000000     0.680260000000     0.0395386  
H155     H      0.273560000000     0.320610000000     0.862750000000     0.0341998  
H156     H      0.255990000000     0.203690000000     0.543570000000     0.159428   
H157     H      0.237490000000     0.180050000000     0.363310000000     0.0339568  
H158     H      0.268140000000     0.316260000000     0.084620000000     0.0314467  
H159     H      0.275600000000     0.234540000000     0.284840000000     0.0431784  
H160     H      0.227620000000     0.262020000000     0.162930000000     0.0399138  
H161     H      0.248500000000     0.297780000000     0.144160000000     0.0612277  
H162     H      0.208510000000     0.242850000000     0.223250000000     0.0424867  
H163     H      0.303510000000     0.246590000000     0.150060000000     0.0846978  
H164     H      0.255510000000     0.198370000000     0.301770000000     0.0566717  
H165     H      0.199450000000     0.248720000000     0.298940000000     0.0566585  
H166     H      0.294660000000     0.253660000000     0.224730000000     0.0402037  
H167     H      0.181660000000     0.229670000000     0.360210000000     0.0348445  
H168     H      0.339980000000     0.271580000000     0.105140000000     0.160889   
H169     H      0.601790000000     0.330310000000     0.044030000000     0.0341722  
H170     H      0.408010000000     0.320880000000     0.910900000000     0.031868   
H171     H      0.527590000000     0.300080000000     0.030420000000     0.0425309  
H172     H      0.483630000000     0.344620000000     0.921020000000     0.0401577  
H173     H      0.450300000000     0.319670000000     0.908570000000     0.0609758  
H174     H      0.526280000000     0.345390000000     0.920360000000     0.0430246  
H175     H      0.452190000000     0.324030000000     0.045960000000     0.0848494  
H176     H      0.559350000000     0.328120000000     0.044220000000     0.0566578  
H177     H      0.560270000000     0.319910000000     0.907190000000     0.0566186  
H178     H      0.484920000000     0.299070000000     0.030870000000     0.0398209  
H179     H      0.602700000000     0.322390000000     0.908110000000     0.0351239  
H180     H      0.405070000000     0.308290000000     0.064960000000     0.160146   
H181     H      0.332490000000     0.596600000000     0.047120000000     0.0337853  
H182     H      0.320180000000     0.403930000000     0.914040000000     0.0320267  
H183     H      0.301400000000     0.522510000000     0.037280000000     0.0425969  
H184     H      0.342910000000     0.479140000000     0.922860000000     0.0399248  
H185     H      0.318130000000     0.445940000000     0.912630000000     0.0607948  
H186     H      0.343270000000     0.521560000000     0.922290000000     0.0422904  
H187     H      0.325800000000     0.447370000000     0.049560000000     0.0847098  
H188     H      0.330190000000     0.554370000000     0.047710000000     0.0564803  
H189     H      0.316500000000     0.555050000000     0.912210000000     0.0561665  
H190     H      0.300670000000     0.480030000000     0.037570000000     0.0395969  
H191     H      0.319070000000     0.597270000000     0.912690000000     0.033658   
H192     H      0.311190000000     0.400090000000     0.068900000000     0.159736   
N1       N      0.191760000000     0.099870000000     0.472720000000    -0.207822   
N2       N      0.191430000000     0.901450000000     0.475760000000    -0.179828   
N3       N      0.907940000000     0.827610000000     0.472030000000    -0.207899   
N4       N      0.107310000000     0.824740000000     0.481580000000    -0.180023   
N5       N      0.825480000000     0.104800000000     0.478000000000    -0.206917   
N6       N      0.824810000000     0.906090000000     0.475360000000    -0.178735   
N7       N      0.906080000000     0.185430000000     0.475100000000    -0.206816   
N8       N      0.105520000000     0.180190000000     0.482340000000    -0.179488   
N9       N      0.799110000000     0.800800000000     0.580160000000    -0.207525   
N10      N      0.710030000000     0.711850000000     0.863290000000    -0.179787   
N11      N      0.715350000000     0.710060000000     0.080880000000    -0.207708   
N12      N      0.801500000000     0.799960000000     0.365580000000    -0.18028    
N13      N      0.798870000000     0.213660000000     0.580590000000    -0.207746   
N14      N      0.712940000000     0.299380000000     0.870350000000    -0.180044   
N15      N      0.797550000000     0.211020000000     0.369440000000    -0.207391   
N16      N      0.712090000000     0.298780000000     0.081900000000    -0.179716   
N17      N      0.686420000000     0.406600000000     0.977170000000    -0.207757   
N18      N      0.687980000000     0.605290000000     0.984200000000    -0.179978   
N19      N      0.297750000000     0.706930000000     0.875100000000    -0.207097   
N20      N      0.212780000000     0.795170000000     0.587870000000    -0.180487   
N21      N      0.302420000000     0.708250000000     0.086080000000    -0.207153   
N22      N      0.213950000000     0.795790000000     0.371540000000    -0.179843   
N23      N      0.407490000000     0.679670000000     0.970530000000    -0.207684   
N24      N      0.607040000000     0.685660000000     0.967160000000    -0.179935   
N25      N      0.212810000000     0.205000000000     0.586690000000    -0.208256   
N26      N      0.298440000000     0.293290000000     0.873920000000    -0.179527   
N27      N      0.297210000000     0.292530000000     0.083250000000    -0.207631   
N28      N      0.208380000000     0.203630000000     0.366380000000    -0.179468   
N29      N      0.405570000000     0.322900000000     0.979310000000    -0.207429   
N30      N      0.605290000000     0.326590000000     0.976090000000    -0.179712   
N31      N      0.323910000000     0.401250000000     0.982170000000    -0.207318   
N32      N      0.326070000000     0.599970000000     0.979870000000    -0.180218   
O1       O      0.327210000000     0.296760000000     0.034080000000    -0.236652   
O2       O      0.301920000000     0.323800000000     0.921500000000    -0.247374   
O3       O      0.369670000000     0.325450000000     0.013320000000    -0.233952   
O4       O      0.327940000000     0.365360000000     0.015080000000    -0.234425   
O5       O      0.325660000000     0.365950000000     0.946750000000    -0.24927    
O6       O      0.369790000000     0.323930000000     0.944940000000    -0.250787   
O7       O      0.299280000000     0.321640000000     0.032370000000    -0.251757   
O8       O      0.326220000000     0.295410000000     0.927200000000    -0.24694    
O9       O      0.325260000000     0.635600000000     0.945890000000    -0.248979   
O10      O      0.372610000000     0.680800000000     0.008100000000    -0.250702   
O11      O      0.306220000000     0.677010000000     0.040020000000    -0.24867    
O12      O      0.299230000000     0.680850000000     0.931480000000    -0.237005   
O13      O      0.329720000000     0.701500000000     0.919010000000    -0.245628   
O14      O      0.328300000000     0.706590000000     0.029090000000    -0.235967   
O15      O      0.332950000000     0.635200000000     0.013030000000    -0.249141   
O16      O      0.370910000000     0.673240000000     0.941150000000    -0.237719   
O17      O      0.685810000000     0.300350000000     0.925000000000    -0.249615   
O18      O      0.711700000000     0.325820000000     0.027380000000    -0.248407   
O19      O      0.641170000000     0.326830000000     0.942210000000    -0.245998   
O20      O      0.678320000000     0.371530000000     0.943760000000    -0.237869   
O21      O      0.688390000000     0.370500000000     0.009610000000    -0.250306   
O22      O      0.640690000000     0.331550000000     0.010300000000    -0.247578   
O23      O      0.708480000000     0.329910000000     0.917640000000    -0.250046   
O24      O      0.681510000000     0.303870000000     0.034760000000    -0.247669   
O25      O      0.700080000000     0.679390000000     0.902750000000    -0.246002   
O26      O      0.684790000000     0.706930000000     0.033040000000    -0.248363   
O27      O      0.701510000000     0.641400000000     0.963160000000    -0.242307   
O28      O      0.643170000000     0.679420000000     0.935950000000    -0.251351   
O29      O      0.642140000000     0.686760000000     0.003310000000    -0.244185   
O30      O      0.668810000000     0.639940000000     0.996950000000    -0.252969   
O31      O      0.691400000000     0.712900000000     0.928750000000    -0.251479   
O32      O      0.713350000000     0.683120000000     0.025840000000    -0.240784   
O33      O      0.832120000000     0.140480000000     0.510320000000    -0.235851   
O34      O      0.870490000000     0.180200000000     0.441050000000    -0.234612   
O35      O      0.802970000000     0.182560000000     0.534260000000    -0.25124    
O36      O      0.799080000000     0.184420000000     0.424970000000    -0.237414   
O37      O      0.828640000000     0.206880000000     0.415970000000    -0.24984    
O38      O      0.825890000000     0.211690000000     0.525480000000    -0.238215   
O39      O      0.824330000000     0.140340000000     0.443410000000    -0.245339   
O40      O      0.870130000000     0.185040000000     0.508940000000    -0.245374   
O41      O      0.871580000000     0.818100000000     0.499600000000    -0.250655   
O42      O      0.822400000000     0.870300000000     0.441980000000    -0.244199   
O43      O      0.821910000000     0.799290000000     0.519150000000    -0.252067   
O44      O      0.832360000000     0.805730000000     0.411800000000    -0.251697   
O45      O      0.801070000000     0.825680000000     0.422270000000    -0.249725   
O46      O      0.809420000000     0.832740000000     0.539100000000    -0.236893   
O47      O      0.872610000000     0.840960000000     0.445640000000    -0.240291   
O48      O      0.834170000000     0.871090000000     0.507230000000    -0.241592   
O49      O      0.143360000000     0.813180000000     0.455770000000    -0.246609   
O50      O      0.193900000000     0.865780000000     0.509350000000    -0.247008   
O51      O      0.188190000000     0.795860000000     0.428400000000    -0.247786   
O52      O      0.181610000000     0.802460000000     0.543080000000    -0.252219   
O53      O      0.214260000000     0.819250000000     0.528990000000    -0.250239   
O54      O      0.208710000000     0.826640000000     0.417840000000    -0.248994   
O55      O      0.142680000000     0.838830000000     0.505730000000    -0.251171   
O56      O      0.180520000000     0.866520000000     0.445150000000    -0.248405   
O57      O      0.179860000000     0.134940000000     0.443480000000    -0.235091   
O58      O      0.142710000000     0.195500000000     0.474990000000    -0.2443     
O59      O      0.208350000000     0.176400000000     0.420460000000    -0.247199   
O60      O      0.211280000000     0.194530000000     0.515370000000    -0.241972   
O61      O      0.182410000000     0.184770000000     0.555060000000    -0.25381    
O62      O      0.180100000000     0.201100000000     0.418960000000    -0.24447    
O63      O      0.193530000000     0.135440000000     0.507280000000    -0.253088   
O64      O      0.139540000000     0.158840000000     0.487170000000    -0.248388   
O65      O      0.177970000000     0.097550000000     0.400320000000    -0.285776   
O66      O      0.911020000000     0.854620000000     0.413610000000    -0.287117   
O67      O      0.834560000000     0.102870000000     0.552860000000    -0.285913   
O68      O      0.908580000000     0.181670000000     0.398760000000    -0.285232   
O69      O      0.785250000000     0.837560000000     0.606860000000    -0.285931   
O70      O      0.748780000000     0.684850000000     0.075140000000    -0.286799   
O71      O      0.823250000000     0.247530000000     0.573010000000    -0.285735   
O72      O      0.763400000000     0.186890000000     0.376700000000    -0.285505   
O73      O      0.674740000000     0.409820000000     0.903670000000    -0.286696   
O74      O      0.262240000000     0.685430000000     0.886900000000    -0.286597   
O75      O      0.326300000000     0.742360000000     0.077080000000    -0.286012   
O76      O      0.407560000000     0.671250000000     0.895280000000    -0.285881   
O77      O      0.245660000000     0.217570000000     0.544490000000    -0.286939   
O78      O      0.327690000000     0.263770000000     0.087970000000    -0.286894   
O79      O      0.407400000000     0.324690000000     0.055970000000    -0.284684   
O80      O      0.327400000000     0.402760000000     0.058620000000    -0.284503   


