data_structure

_audit_creation_method RASPA-1.0
_audit_creation_date 2023-5-22
_audit_author_name 'Poobodin Mano'

_cell_length_a    35.6102
_cell_length_b    28.2125
_cell_length_c    32.7165
_cell_angle_alpha 90.0016
_cell_angle_beta  89.9993
_cell_angle_gamma 90
_cell_volume      32868.7

_symmetry_cell_setting          triclinic
_symmetry_space_group_name_Hall 'P 1'
_symmetry_space_group_name_H-M  'P 1'
_symmetry_Int_Tables_number     1

_symmetry_equiv_pos_as_xyz 'x,y,z'

loop_
_atom_site_label
_atom_site_type_symbol
_atom_site_fract_x
_atom_site_fract_y
_atom_site_fract_z
_atom_site_charge
C1       C      0.469440000000     0.056480000000     0.242200000000     0.282803   
C2       C      0.380650000000     0.164050000000     0.163240000000     0.28297    
C3       C      0.441870000000     0.034060000000     0.106580000000     0.281833   
C4       C      0.349080000000     0.034540000000     0.226800000000     0.283231   
C5       C      0.132150000000     0.852460000000     0.370010000000     0.284407   
C6       C      0.221970000000     0.972490000000     0.322720000000     0.284653   
C7       C      0.093770000000     0.000050000000     0.342910000000     0.285168   
C8       C      0.184730000000     0.976160000000     0.453360000000     0.284559   
C9       C      0.309730000000     0.169210000000     0.664000000000     0.281887   
C10      C      0.220160000000     0.050740000000     0.736710000000     0.28277    
C11      C      0.250530000000     0.044800000000     0.603880000000     0.281588   
C12      C      0.341880000000     0.038550000000     0.726460000000     0.282525   
C13      C      0.056050000000     0.847480000000     0.878110000000     0.282071   
C14      C      0.967710000000     0.972400000000     0.822010000000     0.282933   
C15      C      0.004190000000     0.967680000000     0.953590000000     0.281541   
C16      C      0.095170000000     0.983870000000     0.833330000000     0.282775   
C17      C      0.380680000000     0.352820000000     0.655720000000     0.282232   
C18      C      0.476770000000     0.468750000000     0.717900000000     0.283891   
C19      C      0.437460000000     0.475720000000     0.588330000000     0.281318   
C20      C      0.354650000000     0.487540000000     0.716760000000     0.282668   
C21      C      0.132970000000     0.667660000000     0.872050000000     0.281899   
C22      C      0.228400000000     0.550210000000     0.812970000000     0.283878   
C23      C      0.190650000000     0.542730000000     0.938670000000     0.281379   
C24      C      0.102450000000     0.532190000000     0.814930000000     0.282746   
C25      C      0.463030000000     0.549860000000     0.311470000000     0.283379   
C26      C      0.058640000000     0.669680000000     0.367370000000     0.281595   
C27      C      0.001510000000     0.546670000000     0.437650000000     0.281035   
C28      C      0.088080000000     0.531780000000     0.312530000000     0.283204   
C29      C      0.309980000000     0.347790000000     0.156410000000     0.282374   
C30      C      0.213950000000     0.465050000000     0.217480000000     0.283817   
C31      C      0.336660000000     0.483960000000     0.216910000000     0.282407   
C32      C      0.254460000000     0.470470000000     0.088860000000     0.281603   
C33      C      0.129940000000     0.535810000000     0.251830000000    -0.00668895 
C34      C      0.119500000000     0.512670000000     0.288090000000    -0.0528247  
C35      C      0.139720000000     0.472390000000     0.300590000000    -0.00630373 
C36      C      0.170040000000     0.455850000000     0.277220000000    -0.00589687 
C37      C      0.180870000000     0.479880000000     0.241470000000    -0.0531439  
C38      C      0.160380000000     0.519830000000     0.228990000000    -0.00603257 
C39      C      0.412360000000     0.491520000000     0.297260000000    -0.00606389 
C40      C      0.429710000000     0.534870000000     0.287990000000    -0.052915   
C41      C      0.415540000000     0.562500000000     0.255740000000    -0.0057967  
C42      C      0.385090000000     0.546270000000     0.232470000000    -0.00638597 
C43      C      0.367970000000     0.502670000000     0.241710000000    -0.0521355  
C44      C      0.381660000000     0.475800000000     0.274630000000    -0.00675427 
C45      C      0.238140000000     0.546750000000     0.995130000000    -0.00700153 
C46      C      0.206840000000     0.524500000000     0.977250000000    -0.0515181  
C47      C      0.191930000000     0.483790000000     0.995900000000    -0.0068596  
C48      C      0.207860000000     0.465810000000     0.031720000000    -0.00698215 
C49      C      0.239020000000     0.488180000000     0.049740000000    -0.0518202  
C50      C      0.254040000000     0.528800000000     0.031030000000    -0.00682893 
C51      C      0.438410000000     0.534190000000     0.530510000000    -0.00688329 
C52      C      0.453140000000     0.493430000000     0.549280000000    -0.0517134  
C53      C      0.984160000000     0.470730000000     0.531300000000    -0.00644225 
C54      C      0.000150000000     0.488390000000     0.495380000000    -0.00777997 
C55      C      0.985450000000     0.529150000000     0.476580000000    -0.0507908  
C56      C      0.454380000000     0.551850000000     0.494510000000    -0.00709845 
C57      C      0.306810000000     0.549830000000     0.734470000000    -0.00636238 
C58      C      0.323310000000     0.505410000000     0.741940000000    -0.052151   
C59      C      0.309050000000     0.476900000000     0.773520000000    -0.00668856 
C60      C      0.278390000000     0.491860000000     0.796560000000    -0.00589315 
C61      C      0.261690000000     0.536060000000     0.789100000000    -0.053158   
C62      C      0.276420000000     0.565300000000     0.758240000000    -0.0055902  
C63      C      0.029120000000     0.524470000000     0.732150000000    -0.00601421 
C64      C      0.009550000000     0.483050000000     0.742600000000    -0.0533926  
C65      C      0.021100000000     0.456890000000     0.776970000000    -0.00579598 
C66      C      0.051330000000     0.472630000000     0.800900000000    -0.00638525 
C67      C      0.070740000000     0.514250000000     0.790290000000    -0.0527912  
C68      C      0.059460000000     0.539690000000     0.755500000000    -0.00679967 
C69      C      0.083590000000     0.776630000000     0.913580000000    -0.00623509 
C70      C      0.074440000000     0.800630000000     0.877290000000    -0.0516213  
C71      C      0.085000000000     0.780810000000     0.839640000000    -0.00632362 
C72      C      0.104860000000     0.738210000000     0.838240000000    -0.00621051 
C73      C      0.113670000000     0.713850000000     0.874390000000    -0.0524819  
C74      C      0.102520000000     0.733100000000     0.912110000000    -0.00583425 
C75      C      0.366600000000     0.219830000000     0.653820000000    -0.00651342 
C76      C      0.327420000000     0.216150000000     0.658330000000    -0.0518422  
C77      C      0.305790000000     0.257730000000     0.659460000000    -0.00654783 
C78      C      0.323080000000     0.302140000000     0.656880000000    -0.00631039 
C79      C      0.362390000000     0.305830000000     0.654010000000    -0.0521778  
C80      C      0.383950000000     0.264250000000     0.652120000000    -0.00626977 
C81      C      0.387040000000     0.974070000000     0.746200000000    -0.00652397 
C82      C      0.374250000000     0.020960000000     0.750230000000    -0.0519139  
C83      C      0.392510000000     0.051450000000     0.777720000000    -0.00660618 
C84      C      0.423030000000     0.035590000000     0.800610000000    -0.00609939 
C85      C      0.435620000000     0.988610000000     0.797080000000    -0.0531386  
C86      C      0.417290000000     0.957860000000     0.769770000000    -0.00593079 
C87      C      0.138710000000     0.049960000000     0.812080000000    -0.00605745 
C88      C      0.128310000000     0.001890000000     0.811010000000    -0.0527696  
C89      C      0.149100000000     0.970400000000     0.786690000000    -0.00616633 
C90      C      0.179160000000     0.986490000000     0.763360000000    -0.00732974 
C91      C      0.189140000000     0.034640000000     0.763400000000    -0.0518852  
C92      C      0.168830000000     0.066300000000     0.788210000000    -0.0066956  
C93      C      0.091080000000     0.792240000000     0.336200000000    -0.00614372 
C94      C      0.114340000000     0.805090000000     0.369080000000    -0.0526782  
C95      C      0.118790000000     0.773270000000     0.401790000000    -0.00602104 
C96      C      0.100560000000     0.729300000000     0.401410000000    -0.00683412 
C97      C      0.077000000000     0.716700000000     0.368680000000    -0.0517822  
C98      C      0.072380000000     0.748690000000     0.336160000000    -0.00706339 
C99      C      0.233870000000     0.972120000000     0.508080000000    -0.00601291 
C100     C      0.200780000000     0.992610000000     0.492620000000    -0.0529741  
C101     C      0.184210000000     0.030310000000     0.514090000000    -0.00594548 
C102     C      0.200510000000     0.047370000000     0.550080000000    -0.00738823 
C103     C      0.233740000000     0.027080000000     0.565400000000    -0.0514766  
C104     C      0.250170000000     0.989160000000     0.544100000000    -0.00745355 
C105     C      0.323680000000     0.214660000000     0.153340000000    -0.00613595 
C106     C      0.362870000000     0.210890000000     0.157490000000    -0.0524433  
C107     C      0.384570000000     0.252400000000     0.158700000000    -0.00619467 
C108     C      0.367360000000     0.296860000000     0.156620000000    -0.00640548 
C109     C      0.328050000000     0.300690000000     0.154220000000    -0.0521104  
C110     C      0.306380000000     0.259180000000     0.152170000000    -0.0064153  
C111     C      0.439920000000     0.980220000000     0.045490000000    -0.00689449 
C112     C      0.458290000000     0.015570000000     0.068170000000    -0.0521993  
C113     C      0.992560000000     0.033690000000     0.053610000000    -0.00582165 
C114     C      0.007850000000     0.017410000000     0.016860000000    -0.00764985 
C115     C      0.989180000000     0.982680000000     0.993780000000    -0.0507874  
C116     C      0.455190000000     0.963980000000     0.008630000000    -0.00691252 
C117     C      0.301300000000     0.972060000000     0.244910000000    -0.00690227 
C118     C      0.316650000000     0.017480000000     0.250870000000    -0.0515315  
C119     C      0.300730000000     0.047300000000     0.280540000000    -0.00721915 
C120     C      0.270110000000     0.032350000000     0.303610000000    -0.00589272 
C121     C      0.254680000000     0.987030000000     0.297880000000    -0.0530511  
C122     C      0.270610000000     0.956850000000     0.268390000000    -0.00599265 
C123     C      0.064190000000     0.057580000000     0.294400000000    -0.00566145 
C124     C      0.060460000000     0.019690000000     0.322010000000    -0.0529466  
C125     C      0.025510000000     0.997080000000     0.325820000000    -0.00683331 
C126     C      0.995540000000     0.010110000000     0.300660000000    -0.00558834 
C127     C      0.999740000000     0.046600000000     0.271800000000    -0.0524167  
C128     C      0.033950000000     0.071250000000     0.269780000000    -0.00657322 
C129     C      0.969450000000     0.056480000000     0.242200000000     0.282559   
C130     C      0.880650000000     0.164050000000     0.163240000000     0.282863   
C131     C      0.941860000000     0.034060000000     0.106580000000     0.282186   
C132     C      0.849080000000     0.034530000000     0.226800000000     0.283034   
C133     C      0.632150000000     0.852460000000     0.370010000000     0.284307   
C134     C      0.721970000000     0.972490000000     0.322720000000     0.284749   
C135     C      0.593770000000     0.000050000000     0.342900000000     0.285215   
C136     C      0.684730000000     0.976160000000     0.453360000000     0.284562   
C137     C      0.809720000000     0.169210000000     0.664000000000     0.281935   
C138     C      0.720160000000     0.050740000000     0.736710000000     0.282769   
C139     C      0.750530000000     0.044800000000     0.603870000000     0.281491   
C140     C      0.841880000000     0.038550000000     0.726460000000     0.282521   
C141     C      0.556060000000     0.847480000000     0.878120000000     0.282027   
C142     C      0.467710000000     0.972400000000     0.822010000000     0.283097   
C143     C      0.504190000000     0.967680000000     0.953590000000     0.282257   
C144     C      0.595170000000     0.983870000000     0.833330000000     0.282704   
C145     C      0.880680000000     0.352820000000     0.655720000000     0.282196   
C146     C      0.976770000000     0.468740000000     0.717900000000     0.284096   
C147     C      0.937460000000     0.475720000000     0.588330000000     0.281437   
C148     C      0.854650000000     0.487540000000     0.716760000000     0.282711   
C149     C      0.632970000000     0.667660000000     0.872050000000     0.2818     
C150     C      0.728400000000     0.550210000000     0.812970000000     0.283874   
C151     C      0.690650000000     0.542730000000     0.938670000000     0.281384   
C152     C      0.602450000000     0.532200000000     0.814940000000     0.28286    
C153     C      0.963030000000     0.549860000000     0.311470000000     0.283354   
C154     C      0.558640000000     0.669680000000     0.367370000000     0.281534   
C155     C      0.501510000000     0.546670000000     0.437650000000     0.281618   
C156     C      0.588080000000     0.531780000000     0.312530000000     0.283167   
C157     C      0.809980000000     0.347780000000     0.156410000000     0.282293   
C158     C      0.713950000000     0.465050000000     0.217480000000     0.283812   
C159     C      0.836660000000     0.483960000000     0.216910000000     0.28241    
C160     C      0.754460000000     0.470470000000     0.088860000000     0.281599   
C161     C      0.629940000000     0.535810000000     0.251830000000    -0.00670434 
C162     C      0.619500000000     0.512670000000     0.288080000000    -0.0527448  
C163     C      0.639720000000     0.472380000000     0.300590000000    -0.00636606 
C164     C      0.670040000000     0.455850000000     0.277220000000    -0.00585468 
C165     C      0.680870000000     0.479880000000     0.241470000000    -0.0531474  
C166     C      0.660380000000     0.519830000000     0.228990000000    -0.00601294 
C167     C      0.912360000000     0.491520000000     0.297260000000    -0.00606731 
C168     C      0.929710000000     0.534870000000     0.287990000000    -0.0528757  
C169     C      0.915540000000     0.562500000000     0.255740000000    -0.0057977  
C170     C      0.885090000000     0.546270000000     0.232470000000    -0.00637012 
C171     C      0.867970000000     0.502670000000     0.241710000000    -0.0521325  
C172     C      0.881660000000     0.475800000000     0.274630000000    -0.00673999 
C173     C      0.738140000000     0.546750000000     0.995130000000    -0.00697064 
C174     C      0.706840000000     0.524500000000     0.977250000000    -0.0515219  
C175     C      0.691930000000     0.483790000000     0.995900000000    -0.00684468 
C176     C      0.707860000000     0.465810000000     0.031730000000    -0.00699464 
C177     C      0.739020000000     0.488180000000     0.049740000000    -0.0518001  
C178     C      0.754040000000     0.528800000000     0.031030000000    -0.00684208 
C179     C      0.938410000000     0.534190000000     0.530510000000    -0.00660961 
C180     C      0.953130000000     0.493430000000     0.549280000000    -0.0519855  
C181     C      0.484160000000     0.470730000000     0.531300000000    -0.00701405 
C182     C      0.500150000000     0.488390000000     0.495380000000    -0.00694889 
C183     C      0.485460000000     0.529150000000     0.476580000000    -0.0515741  
C184     C      0.954380000000     0.551850000000     0.494510000000    -0.00741407 
C185     C      0.806810000000     0.549830000000     0.734470000000    -0.00632752 
C186     C      0.823320000000     0.505410000000     0.741940000000    -0.0522039  
C187     C      0.809050000000     0.476900000000     0.773520000000    -0.00665277 
C188     C      0.778390000000     0.491860000000     0.796560000000    -0.00590452 
C189     C      0.761690000000     0.536060000000     0.789100000000    -0.0531404  
C190     C      0.776420000000     0.565300000000     0.758240000000    -0.0056005  
C191     C      0.529120000000     0.524480000000     0.732150000000    -0.00615876 
C192     C      0.509550000000     0.483050000000     0.742610000000    -0.053087   
C193     C      0.521100000000     0.456890000000     0.776970000000    -0.00587105 
C194     C      0.551330000000     0.472630000000     0.800900000000    -0.00631722 
C195     C      0.570740000000     0.514250000000     0.790290000000    -0.0528126  
C196     C      0.559460000000     0.539690000000     0.755500000000    -0.00669445 
C197     C      0.583600000000     0.776630000000     0.913590000000    -0.00627694 
C198     C      0.574450000000     0.800630000000     0.877290000000    -0.0515757  
C199     C      0.585000000000     0.780800000000     0.839640000000    -0.00634026 
C200     C      0.604860000000     0.738210000000     0.838240000000    -0.00619957 
C201     C      0.613670000000     0.713850000000     0.874390000000    -0.0524462  
C202     C      0.602530000000     0.733100000000     0.912110000000    -0.00581265 
C203     C      0.866600000000     0.219830000000     0.653820000000    -0.00646611 
C204     C      0.827420000000     0.216150000000     0.658330000000    -0.0518411  
C205     C      0.805790000000     0.257720000000     0.659460000000    -0.00653091 
C206     C      0.823080000000     0.302140000000     0.656880000000    -0.00632721 
C207     C      0.862380000000     0.305830000000     0.654010000000    -0.052105   
C208     C      0.883950000000     0.264250000000     0.652120000000    -0.00634718 
C209     C      0.887040000000     0.974060000000     0.746200000000    -0.00655616 
C210     C      0.874250000000     0.020960000000     0.750230000000    -0.0518932  
C211     C      0.892510000000     0.051450000000     0.777720000000    -0.00659467 
C212     C      0.923030000000     0.035590000000     0.800610000000    -0.00612471 
C213     C      0.935620000000     0.988610000000     0.797070000000    -0.053045   
C214     C      0.917290000000     0.957860000000     0.769770000000    -0.00589561 
C215     C      0.638710000000     0.049960000000     0.812080000000    -0.00608403 
C216     C      0.628310000000     0.001890000000     0.811010000000    -0.0527059  
C217     C      0.649090000000     0.970400000000     0.786680000000    -0.00622943 
C218     C      0.679160000000     0.986490000000     0.763360000000    -0.00727471 
C219     C      0.689130000000     0.034640000000     0.763390000000    -0.051892   
C220     C      0.668830000000     0.066300000000     0.788220000000    -0.00667666 
C221     C      0.591080000000     0.792240000000     0.336200000000    -0.00611048 
C222     C      0.614340000000     0.805090000000     0.369080000000    -0.0526881  
C223     C      0.618780000000     0.773270000000     0.401780000000    -0.0059081  
C224     C      0.600560000000     0.729300000000     0.401410000000    -0.00689185 
C225     C      0.577000000000     0.716700000000     0.368680000000    -0.0517181  
C226     C      0.572380000000     0.748690000000     0.336160000000    -0.00706364 
C227     C      0.733870000000     0.972120000000     0.508080000000    -0.0059951  
C228     C      0.700780000000     0.992610000000     0.492620000000    -0.0529714  
C229     C      0.684210000000     0.030310000000     0.514090000000    -0.00593901 
C230     C      0.700510000000     0.047370000000     0.550080000000    -0.0073794  
C231     C      0.733740000000     0.027080000000     0.565400000000    -0.0514807  
C232     C      0.750170000000     0.989150000000     0.544100000000    -0.0074718  
C233     C      0.823680000000     0.214660000000     0.153340000000    -0.00613056 
C234     C      0.862870000000     0.210890000000     0.157490000000    -0.0523996  
C235     C      0.884570000000     0.252400000000     0.158700000000    -0.00620773 
C236     C      0.867360000000     0.296860000000     0.156620000000    -0.00637925 
C237     C      0.828050000000     0.300690000000     0.154220000000    -0.0521318  
C238     C      0.806380000000     0.259180000000     0.152180000000    -0.00640354 
C239     C      0.939920000000     0.980220000000     0.045480000000    -0.00653308 
C240     C      0.958290000000     0.015570000000     0.068170000000    -0.0526258  
C241     C      0.492560000000     0.033690000000     0.053610000000    -0.00675263 
C242     C      0.507850000000     0.017410000000     0.016870000000    -0.00665851 
C243     C      0.489180000000     0.982680000000     0.993780000000    -0.0516764  
C244     C      0.955190000000     0.963980000000     0.008630000000    -0.00733386 
C245     C      0.801300000000     0.972060000000     0.244900000000    -0.00695625 
C246     C      0.816650000000     0.017480000000     0.250870000000    -0.0514426  
C247     C      0.800740000000     0.047300000000     0.280540000000    -0.0072727  
C248     C      0.770110000000     0.032350000000     0.303610000000    -0.00584505 
C249     C      0.754680000000     0.987030000000     0.297880000000    -0.053103   
C250     C      0.770610000000     0.956850000000     0.268390000000    -0.00594148 
C251     C      0.564190000000     0.057580000000     0.294400000000    -0.00567227 
C252     C      0.560470000000     0.019690000000     0.322010000000    -0.0530528  
C253     C      0.525510000000     0.997080000000     0.325820000000    -0.00654111 
C254     C      0.495540000000     0.010110000000     0.300670000000    -0.00581902 
C255     C      0.499740000000     0.046610000000     0.271800000000    -0.0526511  
C256     C      0.533950000000     0.071250000000     0.269780000000    -0.00629221 
Cd1      Cd     0.411570000000     0.071980000000     0.181960000000     0.509988   
Cd2      Cd     0.158330000000     0.949290000000     0.373300000000     0.509741   
Cd3      Cd     0.279640000000     0.076690000000     0.681430000000     0.511486   
Cd4      Cd     0.029920000000     0.943710000000     0.872750000000     0.509719   
Cd5      Cd     0.412800000000     0.445430000000     0.668090000000     0.511308   
Cd6      Cd     0.163230000000     0.573850000000     0.860630000000     0.511058   
Cd7      Cd     0.028260000000     0.575420000000     0.358390000000     0.510674   
Cd8      Cd     0.278480000000     0.440750000000     0.168860000000     0.511286   
Cd9      Cd     0.911570000000     0.071980000000     0.181960000000     0.509994   
Cd10     Cd     0.658330000000     0.949290000000     0.373300000000     0.509749   
Cd11     Cd     0.779640000000     0.076690000000     0.681430000000     0.511489   
Cd12     Cd     0.529920000000     0.943710000000     0.872750000000     0.509918   
Cd13     Cd     0.912800000000     0.445430000000     0.668090000000     0.51132    
Cd14     Cd     0.663230000000     0.573850000000     0.860630000000     0.511052   
Cd15     Cd     0.528260000000     0.575420000000     0.358390000000     0.510829   
Cd16     Cd     0.778480000000     0.440750000000     0.168860000000     0.511282   
H1       H      0.114980000000     0.566960000000     0.241340000000     0.05751    
H2       H      0.132200000000     0.453810000000     0.328380000000     0.0571544  
H3       H      0.185450000000     0.424990000000     0.287560000000     0.0567838  
H4       H      0.167910000000     0.538960000000     0.201460000000     0.0569916  
H5       H      0.422550000000     0.469590000000     0.322080000000     0.0566882  
H6       H      0.428480000000     0.596040000000     0.247930000000     0.056998   
H7       H      0.375020000000     0.567720000000     0.207290000000     0.0571837  
H8       H      0.369140000000     0.442000000000     0.282460000000     0.0574706  
H9       H      0.250390000000     0.578070000000     0.981400000000     0.0576012  
H10      H      0.167960000000     0.465690000000     0.982780000000     0.0584151  
H11      H      0.195510000000     0.434560000000     0.045480000000     0.0576378  
H12      H      0.277930000000     0.546960000000     0.044250000000     0.0582091  
H13      H      0.414640000000     0.552620000000     0.543710000000     0.0580926  
H14      H      0.996300000000     0.439360000000     0.545080000000     0.0576302  
H15      H      0.023940000000     0.469940000000     0.482250000000     0.0586161  
H16      H      0.442290000000     0.583200000000     0.480670000000     0.0574444  
H17      H      0.317350000000     0.572520000000     0.710360000000     0.0570132  
H18      H      0.321080000000     0.442430000000     0.779950000000     0.0574284  
H19      H      0.267740000000     0.468690000000     0.820290000000     0.0565663  
H20      H      0.263940000000     0.599520000000     0.751850000000     0.056851   
H21      H      0.021010000000     0.545300000000     0.705750000000     0.0568937  
H22      H      0.506390000000     0.424860000000     0.785740000000     0.0568937  
H23      H      0.059520000000     0.452290000000     0.827520000000     0.0570124  
H24      H      0.073760000000     0.571940000000     0.746510000000     0.0572858  
H25      H      0.075890000000     0.791330000000     0.943000000000     0.0553324  
H26      H      0.078690000000     0.798810000000     0.811200000000     0.0576377  
H27      H      0.112770000000     0.723910000000     0.808730000000     0.0567312  
H28      H      0.108890000000     0.714850000000     0.940400000000     0.0553225  
H29      H      0.384020000000     0.188370000000     0.652990000000     0.0570046  
H30      H      0.275560000000     0.255950000000     0.662820000000     0.0569999  
H31      H      0.305730000000     0.333620000000     0.658590000000     0.056844   
H32      H      0.414270000000     0.266030000000     0.649860000000     0.0569042  
H33      H      0.373390000000     0.949800000000     0.725280000000     0.0572081  
H34      H      0.383380000000     0.087840000000     0.781380000000     0.057131   
H35      H      0.436510000000     0.060080000000     0.821470000000     0.0571535  
H36      H      0.426510000000     0.921490000000     0.766380000000     0.0572546  
H37      H      0.123090000000     0.075000000000     0.830540000000     0.0567319  
H38      H      0.141980000000     0.933090000000     0.785350000000     0.0566035  
H39      H      0.194210000000     0.961080000000     0.744720000000     0.0580984  
H40      H      0.175980000000     0.103600000000     0.788930000000     0.0573799  
H41      H      0.086830000000     0.816150000000     0.310720000000     0.0567917  
H42      H      0.136420000000     0.782290000000     0.427610000000     0.0568862  
H43      H      0.104760000000     0.705280000000     0.426830000000     0.0568066  
H44      H      0.054670000000     0.739850000000     0.310340000000     0.0579429  
H45      H      0.247410000000     0.943100000000     0.492180000000     0.0575996  
H46      H      0.158800000000     0.046980000000     0.502910000000     0.0574487  
H47      H      0.187050000000     0.076520000000     0.565880000000     0.0577766  
H48      H      0.275660000000     0.972640000000     0.555190000000     0.0582254  
H49      H      0.306240000000     0.183220000000     0.152510000000     0.0566924  
H50      H      0.414820000000     0.250530000000     0.161810000000     0.0569684  
H51      H      0.384800000000     0.328250000000     0.158400000000     0.0570421  
H52      H      0.276050000000     0.261090000000     0.150240000000     0.0567995  
H53      H      0.413530000000     0.965470000000     0.055940000000     0.0578168  
H54      H      0.007510000000     0.060850000000     0.070440000000     0.0574179  
H55      H      0.034050000000     0.032580000000     0.006270000000     0.0586359  
H56      H      0.440100000000     0.937180000000     0.991530000000     0.0576555  
H57      H      0.313050000000     0.948290000000     0.222280000000     0.0576333  
H58      H      0.311800000000     0.082530000000     0.285900000000     0.0577521  
H59      H      0.258600000000     0.056490000000     0.326110000000     0.0579343  
H60      H      0.259230000000     0.921740000000     0.263290000000     0.0568667  
H61      H      0.090830000000     0.075670000000     0.290870000000     0.056722   
H62      H      0.021830000000     0.967650000000     0.346710000000     0.0566163  
H63      H      0.469340000000     0.990780000000     0.303100000000     0.0560251  
H64      H      0.037930000000     0.099570000000     0.247850000000     0.0573961  
H65      H      0.614980000000     0.566960000000     0.241340000000     0.0575328  
H66      H      0.632200000000     0.453810000000     0.328380000000     0.0571918  
H67      H      0.685450000000     0.424990000000     0.287560000000     0.0567882  
H68      H      0.667910000000     0.538960000000     0.201460000000     0.0569978  
H69      H      0.922550000000     0.469590000000     0.322080000000     0.0567137  
H70      H      0.928480000000     0.596040000000     0.247930000000     0.057031   
H71      H      0.875020000000     0.567720000000     0.207290000000     0.0571966  
H72      H      0.869140000000     0.442000000000     0.282460000000     0.0574794  
H73      H      0.750400000000     0.578070000000     0.981400000000     0.0575985  
H74      H      0.667960000000     0.465690000000     0.982780000000     0.058427   
H75      H      0.695510000000     0.434560000000     0.045480000000     0.0576549  
H76      H      0.777930000000     0.546960000000     0.044250000000     0.0582229  
H77      H      0.914640000000     0.552620000000     0.543710000000     0.058043   
H78      H      0.496300000000     0.439370000000     0.545090000000     0.0577114  
H79      H      0.523940000000     0.469940000000     0.482260000000     0.0584682  
H80      H      0.942290000000     0.583210000000     0.480670000000     0.0575497  
H81      H      0.817350000000     0.572520000000     0.710360000000     0.0570188  
H82      H      0.821080000000     0.442430000000     0.779950000000     0.0574328  
H83      H      0.767740000000     0.468690000000     0.820290000000     0.0565781  
H84      H      0.763940000000     0.599520000000     0.751850000000     0.0568627  
H85      H      0.521010000000     0.545310000000     0.705760000000     0.0569996  
H86      H      0.006390000000     0.424860000000     0.785740000000     0.0568013  
H87      H      0.559520000000     0.452290000000     0.827520000000     0.0570249  
H88      H      0.573760000000     0.571950000000     0.746520000000     0.0572808  
H89      H      0.575900000000     0.791340000000     0.943000000000     0.0553765  
H90      H      0.578680000000     0.798810000000     0.811210000000     0.0576629  
H91      H      0.612770000000     0.723910000000     0.808730000000     0.0567438  
H92      H      0.608890000000     0.714850000000     0.940400000000     0.0553387  
H93      H      0.884020000000     0.188370000000     0.652990000000     0.057015   
H94      H      0.775560000000     0.255950000000     0.662820000000     0.057002   
H95      H      0.805730000000     0.333620000000     0.658590000000     0.0568547  
H96      H      0.914260000000     0.266030000000     0.649860000000     0.0569553  
H97      H      0.873390000000     0.949800000000     0.725280000000     0.0572361  
H98      H      0.883380000000     0.087840000000     0.781370000000     0.0571458  
H99      H      0.936510000000     0.060080000000     0.821470000000     0.0571893  
H100     H      0.926520000000     0.921480000000     0.766380000000     0.0572733  
H101     H      0.623100000000     0.075000000000     0.830540000000     0.0567639  
H102     H      0.641970000000     0.933100000000     0.785340000000     0.0566292  
H103     H      0.694210000000     0.961080000000     0.744710000000     0.0580915  
H104     H      0.675990000000     0.103600000000     0.788930000000     0.0573905  
H105     H      0.586830000000     0.816160000000     0.310720000000     0.0568086  
H106     H      0.636430000000     0.782290000000     0.427610000000     0.0568605  
H107     H      0.604760000000     0.705280000000     0.426830000000     0.0568419  
H108     H      0.554660000000     0.739850000000     0.310340000000     0.057977   
H109     H      0.747410000000     0.943100000000     0.492180000000     0.0576038  
H110     H      0.658800000000     0.046980000000     0.502910000000     0.0574648  
H111     H      0.687050000000     0.076520000000     0.565880000000     0.0577876  
H112     H      0.775660000000     0.972640000000     0.555190000000     0.0582423  
H113     H      0.806230000000     0.183220000000     0.152510000000     0.0566888  
H114     H      0.914820000000     0.250530000000     0.161810000000     0.0570013  
H115     H      0.884800000000     0.328250000000     0.158400000000     0.0570558  
H116     H      0.776050000000     0.261090000000     0.150240000000     0.0568019  
H117     H      0.913530000000     0.965470000000     0.055940000000     0.0577404  
H118     H      0.507510000000     0.060850000000     0.070440000000     0.057801   
H119     H      0.534050000000     0.032580000000     0.006280000000     0.0584266  
H120     H      0.940100000000     0.937180000000     0.991530000000     0.0577882  
H121     H      0.813050000000     0.948290000000     0.222270000000     0.0576567  
H122     H      0.811810000000     0.082520000000     0.285910000000     0.0577829  
H123     H      0.758600000000     0.056480000000     0.326120000000     0.0579302  
H124     H      0.759230000000     0.921740000000     0.263290000000     0.0568656  
H125     H      0.590830000000     0.075660000000     0.290870000000     0.0567474  
H126     H      0.521830000000     0.967650000000     0.346710000000     0.0566031  
H127     H      0.969350000000     0.990770000000     0.303090000000     0.0560157  
H128     H      0.537930000000     0.099570000000     0.247850000000     0.057398   
O1       O      0.412220000000     0.159550000000     0.180640000000    -0.226099   
O2       O      0.362370000000     0.011810000000     0.196580000000    -0.222595   
O3       O      0.467770000000     0.094830000000     0.222180000000    -0.224936   
O4       O      0.457420000000     0.067240000000     0.126200000000    -0.235148   
O5       O      0.411620000000     0.018080000000     0.121580000000    -0.227349   
O6       O      0.444600000000     0.025850000000     0.234240000000    -0.233655   
O7       O      0.364110000000     0.126100000000     0.153310000000    -0.233089   
O8       O      0.364880000000     0.073440000000     0.235520000000    -0.233907   
O9       O      0.208980000000     0.930650000000     0.322780000000    -0.22812    
O10      O      0.155630000000     0.994780000000     0.437890000000    -0.230443   
O11      O      0.133430000000     0.878570000000     0.338600000000    -0.231181   
O12      O      0.126530000000     0.007730000000     0.329630000000    -0.229816   
O13      O      0.090990000000     0.970650000000     0.371960000000    -0.231383   
O14      O      0.144890000000     0.870250000000     0.402710000000    -0.229902   
O15      O      0.205470000000     0.002010000000     0.345520000000    -0.231633   
O16      O      0.200450000000     0.944040000000     0.432500000000    -0.231237   
O17      O      0.228390000000     0.094070000000     0.731580000000    -0.224971   
O18      O      0.330140000000     0.017970000000     0.694430000000    -0.223426   
O19      O      0.277660000000     0.164420000000     0.680390000000    -0.225684   
O20      O      0.235690000000     0.078380000000     0.623760000000    -0.234471   
O21      O      0.279840000000     0.026600000000     0.619270000000    -0.226254   
O22      O      0.326890000000     0.131450000000     0.654730000000    -0.23358    
O23      O      0.239420000000     0.021110000000     0.716730000000    -0.236271   
O24      O      0.324660000000     0.075770000000     0.737130000000    -0.234122   
O25      O      0.974770000000     0.928950000000     0.827890000000    -0.22579    
O26      O      0.078840000000     0.006710000000     0.861550000000    -0.224169   
O27      O      0.037480000000     0.862570000000     0.847780000000    -0.223885   
O28      O      0.986680000000     0.938610000000     0.931080000000    -0.232572   
O29      O      0.034360000000     0.984690000000     0.939110000000    -0.226756   
O30      O      0.060760000000     0.876190000000     0.907450000000    -0.23076    
O31      O      0.989370000000     0.001700000000     0.839270000000    -0.235071   
O32      O      0.081320000000     0.944050000000     0.824420000000    -0.236178   
O33      O      0.462990000000     0.427360000000     0.718960000000    -0.225174   
O34      O      0.362370000000     0.504300000000     0.681770000000    -0.223746   
O35      O      0.414690000000     0.357770000000     0.666390000000    -0.226047   
O36      O      0.451290000000     0.439960000000     0.606200000000    -0.233791   
O37      O      0.410770000000     0.496560000000     0.606630000000    -0.225575   
O38      O      0.362390000000     0.390500000000     0.649220000000    -0.233959   
O39      O      0.460980000000     0.497970000000     0.694220000000    -0.236279   
O40      O      0.374230000000     0.452810000000     0.728670000000    -0.234721   
O41      O      0.218390000000     0.593050000000     0.817030000000    -0.224634   
O42      O      0.109640000000     0.517540000000     0.850700000000    -0.225225   
O43      O      0.153910000000     0.657220000000     0.842130000000    -0.226636   
O44      O      0.204900000000     0.577850000000     0.920150000000    -0.232669   
O45      O      0.162640000000     0.523090000000     0.921690000000    -0.225322   
O46      O      0.127430000000     0.635310000000     0.898160000000    -0.232035   
O47      O      0.208340000000     0.519480000000     0.830660000000    -0.235552   
O48      O      0.123400000000     0.564620000000     0.801290000000    -0.236152   
O49      O      0.032750000000     0.660410000000     0.342060000000    -0.226309   
O50      O      0.081550000000     0.518900000000     0.348940000000    -0.225202   
O51      O      0.474080000000     0.592520000000     0.312760000000    -0.22423    
O52      O      0.987540000000     0.581790000000     0.418900000000    -0.232702   
O53      O      0.028940000000     0.526130000000     0.420440000000    -0.225566   
O54      O      0.982130000000     0.520090000000     0.331510000000    -0.235002   
O55      O      0.069240000000     0.635830000000     0.389980000000    -0.233167   
O56      O      0.066850000000     0.563520000000     0.298170000000    -0.236349   
O57      O      0.228580000000     0.424250000000     0.220500000000    -0.225394   
O58      O      0.281050000000     0.491370000000     0.107290000000    -0.225267   
O59      O      0.276070000000     0.352970000000     0.167380000000    -0.226217   
O60      O      0.317010000000     0.449620000000     0.229530000000    -0.234532   
O61      O      0.329000000000     0.499680000000     0.181560000000    -0.223859   
O62      O      0.328430000000     0.385340000000     0.149940000000    -0.23429    
O63      O      0.229230000000     0.493260000000     0.192530000000    -0.236166   
O64      O      0.240430000000     0.434840000000     0.106730000000    -0.233667   
O65      O      0.912220000000     0.159550000000     0.180640000000    -0.226047   
O66      O      0.862370000000     0.011810000000     0.196570000000    -0.222515   
O67      O      0.967770000000     0.094830000000     0.222180000000    -0.224804   
O68      O      0.957410000000     0.067240000000     0.126190000000    -0.235215   
O69      O      0.911620000000     0.018080000000     0.121580000000    -0.227476   
O70      O      0.944600000000     0.025840000000     0.234230000000    -0.233477   
O71      O      0.864110000000     0.126090000000     0.153310000000    -0.233014   
O72      O      0.864880000000     0.073440000000     0.235530000000    -0.233787   
O73      O      0.708980000000     0.930650000000     0.322770000000    -0.228129   
O74      O      0.655630000000     0.994780000000     0.437890000000    -0.230427   
O75      O      0.633430000000     0.878570000000     0.338590000000    -0.231093   
O76      O      0.626530000000     0.007720000000     0.329630000000    -0.229843   
O77      O      0.590990000000     0.970650000000     0.371960000000    -0.231322   
O78      O      0.644890000000     0.870250000000     0.402710000000    -0.229873   
O79      O      0.705470000000     0.002000000000     0.345520000000    -0.231694   
O80      O      0.700450000000     0.944040000000     0.432500000000    -0.231234   
O81      O      0.728390000000     0.094070000000     0.731580000000    -0.224963   
O82      O      0.830140000000     0.017970000000     0.694430000000    -0.223415   
O83      O      0.777660000000     0.164420000000     0.680390000000    -0.225751   
O84      O      0.735690000000     0.078380000000     0.623760000000    -0.2344     
O85      O      0.779840000000     0.026600000000     0.619270000000    -0.226191   
O86      O      0.826890000000     0.131450000000     0.654730000000    -0.233555   
O87      O      0.739420000000     0.021110000000     0.716730000000    -0.236266   
O88      O      0.824660000000     0.075770000000     0.737130000000    -0.234116   
O89      O      0.474770000000     0.928960000000     0.827890000000    -0.225974   
O90      O      0.578840000000     0.006710000000     0.861550000000    -0.224104   
O91      O      0.537470000000     0.862570000000     0.847790000000    -0.223744   
O92      O      0.486680000000     0.938610000000     0.931080000000    -0.232929   
O93      O      0.534360000000     0.984690000000     0.939110000000    -0.226882   
O94      O      0.560760000000     0.876190000000     0.907450000000    -0.230765   
O95      O      0.489370000000     0.001700000000     0.839270000000    -0.235221   
O96      O      0.581310000000     0.944050000000     0.824420000000    -0.236124   
O97      O      0.962990000000     0.427350000000     0.718960000000    -0.225152   
O98      O      0.862370000000     0.504300000000     0.681770000000    -0.223743   
O99      O      0.914690000000     0.357770000000     0.666390000000    -0.226008   
O100     O      0.951290000000     0.439960000000     0.606200000000    -0.233789   
O101     O      0.910770000000     0.496560000000     0.606630000000    -0.225588   
O102     O      0.862390000000     0.390500000000     0.649220000000    -0.233943   
O103     O      0.960980000000     0.497970000000     0.694220000000    -0.23623    
O104     O      0.874230000000     0.452810000000     0.728670000000    -0.234713   
O105     O      0.718390000000     0.593050000000     0.817030000000    -0.224626   
O106     O      0.609640000000     0.517540000000     0.850700000000    -0.225282   
O107     O      0.653910000000     0.657220000000     0.842130000000    -0.226608   
O108     O      0.704900000000     0.577850000000     0.920150000000    -0.232662   
O109     O      0.662640000000     0.523090000000     0.921690000000    -0.225308   
O110     O      0.627430000000     0.635310000000     0.898170000000    -0.231952   
O111     O      0.708340000000     0.519480000000     0.830660000000    -0.235542   
O112     O      0.623400000000     0.564620000000     0.801290000000    -0.236198   
O113     O      0.532750000000     0.660410000000     0.342060000000    -0.226232   
O114     O      0.581550000000     0.518900000000     0.348940000000    -0.225161   
O115     O      0.974080000000     0.592520000000     0.312760000000    -0.224119   
O116     O      0.487540000000     0.581790000000     0.418900000000    -0.233038   
O117     O      0.528950000000     0.526130000000     0.420440000000    -0.225601   
O118     O      0.482130000000     0.520090000000     0.331510000000    -0.235121   
O119     O      0.569250000000     0.635830000000     0.389980000000    -0.233103   
O120     O      0.566850000000     0.563520000000     0.298170000000    -0.236297   
O121     O      0.728580000000     0.424250000000     0.220510000000    -0.225377   
O122     O      0.781050000000     0.491370000000     0.107290000000    -0.225257   
O123     O      0.776070000000     0.352970000000     0.167380000000    -0.22618    
O124     O      0.817010000000     0.449620000000     0.229530000000    -0.234525   
O125     O      0.829000000000     0.499680000000     0.181560000000    -0.223848   
O126     O      0.828430000000     0.385340000000     0.149940000000    -0.234208   
O127     O      0.729230000000     0.493260000000     0.192530000000    -0.236164   
O128     O      0.740430000000     0.434840000000     0.106730000000    -0.233659   


