data_structure

_audit_creation_method RASPA-1.0
_audit_creation_date 2023-5-22
_audit_author_name 'Poobodin Mano'

_cell_length_a    41.4843
_cell_length_b    41.466
_cell_length_c    42.3487
_cell_angle_alpha 90.0027
_cell_angle_beta  90.0002
_cell_angle_gamma 89.9998
_cell_volume      72847.7

_symmetry_cell_setting          triclinic
_symmetry_space_group_name_Hall 'P 1'
_symmetry_space_group_name_H-M  'P 1'
_symmetry_Int_Tables_number     1

_symmetry_equiv_pos_as_xyz 'x,y,z'

loop_
_atom_site_label
_atom_site_type_symbol
_atom_site_fract_x
_atom_site_fract_y
_atom_site_fract_z
_atom_site_charge
C1       C      0.222420000000     0.418660000000     0.624300000000     0.281564   
C2       C      0.221540000000     0.294410000000     0.627500000000     0.281623   
C3       C      0.284240000000     0.356250000000     0.566340000000     0.282218   
C4       C      0.277200000000     0.364770000000     0.689580000000     0.282808   
C5       C      0.162760000000     0.044670000000     0.628480000000     0.281284   
C6       C      0.162290000000     0.168140000000     0.627270000000     0.281208   
C7       C      0.100570000000     0.107570000000     0.568060000000     0.282884   
C8       C      0.102010000000     0.104610000000     0.690800000000     0.283071   
C9       C      0.256430000000     0.260620000000     0.381230000000     0.281214   
C10      C      0.380230000000     0.260610000000     0.376460000000     0.281093   
C11      C      0.318960000000     0.321430000000     0.317170000000     0.282934   
C12      C      0.317980000000     0.322730000000     0.439630000000     0.283057   
C13      C      0.006400000000     0.201050000000     0.376470000000     0.281122   
C14      C      0.130230000000     0.200970000000     0.381140000000     0.281097   
C15      C      0.068610000000     0.140230000000     0.440530000000     0.282887   
C16      C      0.067410000000     0.138830000000     0.318130000000     0.282913   
C17      C      0.381200000000     0.451990000000     0.881410000000     0.281483   
C18      C      0.256840000000     0.451250000000     0.883020000000     0.281419   
C19      C      0.312040000000     0.398680000000     0.816840000000     0.282561   
C20      C      0.318870000000     0.388420000000     0.940350000000     0.28197    
C21      C      0.007430000000     0.011200000000     0.882140000000     0.281098   
C22      C      0.130830000000     0.010900000000     0.880200000000     0.281327   
C23      C      0.070460000000     0.072070000000     0.818660000000     0.282728   
C24      C      0.067890000000     0.072530000000     0.941400000000     0.283184   
C25      C      0.972770000000     0.041530000000     0.127440000000     0.281084   
C26      C      0.972570000000     0.165350000000     0.132220000000     0.281219   
C27      C      0.034220000000     0.104560000000     0.191260000000     0.282872   
C28      C      0.034160000000     0.103460000000     0.068890000000     0.28294    
C29      C      0.413040000000     0.415340000000     0.126100000000     0.280979   
C30      C      0.412940000000     0.291520000000     0.131020000000     0.281177   
C31      C      0.351560000000     0.353080000000     0.189500000000     0.28285    
C32      C      0.351520000000     0.353800000000     0.067010000000     0.282955   
C33      C      0.476280000000     0.225640000000     0.132430000000    -0.00688648 
C34      C      0.457210000000     0.197580000000     0.132590000000    -0.0515219  
C35      C      0.423510000000     0.200700000000     0.132680000000    -0.00700541 
C36      C      0.409200000000     0.231230000000     0.132390000000    -0.00685675 
C37      C      0.428270000000     0.259290000000     0.131950000000    -0.0515933  
C38      C      0.461970000000     0.256170000000     0.132090000000    -0.00695602 
C39      C      0.423710000000     0.006180000000     0.126180000000    -0.00696746 
C40      C      0.457420000000     0.009290000000     0.126500000000    -0.0515187  
C41      C      0.476470000000     0.481210000000     0.126210000000    -0.00698128 
C42      C      0.462120000000     0.450680000000     0.125870000000    -0.0069701  
C43      C      0.428420000000     0.447580000000     0.125760000000    -0.0513286  
C44      C      0.409370000000     0.975660000000     0.125790000000    -0.00697616 
C45      C      0.040640000000     0.108950000000     0.980100000000    -0.00629375 
C46      C      0.063710000000     0.085060000000     0.973770000000    -0.0527032  
C47      C      0.080010000000     0.070430000000     0.999110000000    -0.00584118 
C48      C      0.071970000000     0.078080000000     0.030270000000    -0.00647784 
C49      C      0.047110000000     0.100110000000     0.036590000000    -0.0526375  
C50      C      0.032210000000     0.116220000000     0.011260000000    -0.00606561 
C51      C      0.305950000000     0.388410000000     0.997860000000    -0.00578902 
C52      C      0.322440000000     0.374520000000     0.972240000000    -0.0523629  
C53      C      0.345390000000     0.350380000000     0.978060000000    -0.00653147 
C54      C      0.353610000000     0.342250000000     0.009090000000    -0.00591709 
C55      C      0.338610000000     0.357730000000     0.034740000000    -0.0525974  
C56      C      0.313760000000     0.379880000000     0.028840000000    -0.00635318 
C57      C      0.196550000000     0.447380000000     0.882450000000    -0.00731963 
C58      C      0.224580000000     0.466470000000     0.882890000000    -0.0515238  
C59      C      0.221480000000     0.000180000000     0.882510000000    -0.00706999 
C60      C      0.191010000000     0.014520000000     0.881550000000    -0.00702296 
C61      C      0.162970000000     0.995460000000     0.881030000000    -0.0517773  
C62      C      0.166040000000     0.461730000000     0.881570000000    -0.00696681 
C63      C      0.416780000000     0.500610000000     0.885740000000    -0.00655217 
C64      C      0.413480000000     0.467140000000     0.881930000000    -0.052345   
C65      C      0.441380000000     0.448160000000     0.878580000000    -0.00666009 
C66      C      0.471940000000     0.962380000000     0.878880000000    -0.00694246 
C67      C      0.475220000000     0.995880000000     0.882480000000    -0.0514588  
C68      C      0.447320000000     0.014840000000     0.885980000000    -0.00703729 
C69      C      0.079460000000     0.139920000000     0.260350000000    -0.0059002  
C70      C      0.063360000000     0.125630000000     0.285990000000    -0.0527026  
C71      C      0.040660000000     0.101250000000     0.280160000000    -0.00631405 
C72      C      0.032390000000     0.093120000000     0.249160000000    -0.00607722 
C73      C      0.047100000000     0.108820000000     0.223500000000    -0.05254    
C74      C      0.071600000000     0.131390000000     0.229360000000    -0.00649444 
C75      C      0.345310000000     0.358330000000     0.278310000000    -0.00635427 
C76      C      0.322830000000     0.333910000000     0.284740000000    -0.0527045  
C77      C      0.306790000000     0.318890000000     0.259450000000    -0.00593374 
C78      C      0.314500000000     0.326770000000     0.228260000000    -0.00651364 
C79      C      0.338800000000     0.349410000000     0.221850000000    -0.0525636  
C80      C      0.353420000000     0.365820000000     0.247130000000    -0.00601971 
C81      C      0.196140000000     0.264350000000     0.381680000000    -0.0069515  
C82      C      0.224190000000     0.245270000000     0.381850000000    -0.0514084  
C83      C      0.221050000000     0.211550000000     0.382210000000    -0.00695556 
C84      C      0.190520000000     0.197230000000     0.382190000000    -0.006994   
C85      C      0.162470000000     0.216320000000     0.381760000000    -0.0513979  
C86      C      0.165610000000     0.250030000000     0.381610000000    -0.00696612 
C87      C      0.415610000000     0.211570000000     0.376140000000    -0.00698144 
C88      C      0.412460000000     0.245280000000     0.375840000000    -0.0514729  
C89      C      0.440490000000     0.264380000000     0.375290000000    -0.00696972 
C90      C      0.471020000000     0.250080000000     0.375310000000    -0.00689952 
C91      C      0.474170000000     0.216370000000     0.375820000000    -0.0515749  
C92      C      0.446140000000     0.197270000000     0.376110000000    -0.00688985 
C93      C      0.102020000000     0.094890000000     0.510450000000    -0.00592465 
C94      C      0.087770000000     0.111570000000     0.535780000000    -0.0526141  
C95      C      0.064010000000     0.134780000000     0.529440000000    -0.00635641 
C96      C      0.056490000000     0.142930000000     0.498270000000    -0.0060081  
C97      C      0.072210000000     0.127630000000     0.472940000000    -0.052664   
C98      C      0.094100000000     0.102660000000     0.479300000000    -0.00638258 
C99      C      0.104750000000     0.116610000000     0.748560000000    -0.00592924 
C100     C      0.089740000000     0.100510000000     0.723290000000    -0.0527238  
C101     C      0.065440000000     0.077920000000     0.729770000000    -0.00627541 
C102     C      0.057990000000     0.069830000000     0.760970000000    -0.0060965  
C103     C      0.074320000000     0.084600000000     0.786230000000    -0.0524929  
C104     C      0.096910000000     0.108920000000     0.779770000000    -0.00648989 
C105     C      0.322260000000     0.329990000000     0.528460000000    -0.00650148 
C106     C      0.297710000000     0.352480000000     0.534300000000    -0.0524442  
C107     C      0.283130000000     0.368340000000     0.508660000000    -0.00581719 
C108     C      0.291480000000     0.360350000000     0.477670000000    -0.00635852 
C109     C      0.314110000000     0.335920000000     0.471800000000    -0.0526221  
C110     C      0.330190000000     0.321560000000     0.497440000000    -0.00584297 
C111     C      0.310660000000     0.354440000000     0.738180000000    -0.00521149 
C112     C      0.287990000000     0.373110000000     0.721630000000    -0.0527422  
C113     C      0.273970000000     0.399890000000     0.736400000000    -0.004695   
C114     C      0.282420000000     0.408130000000     0.767110000000    -0.00579307 
C115     C      0.304430000000     0.389230000000     0.784150000000    -0.0521182  
C116     C      0.318450000000     0.362170000000     0.769590000000    -0.00578323 
C117     C      0.172860000000     0.258850000000     0.623710000000    -0.00660562 
C118     C      0.206330000000     0.262140000000     0.627390000000    -0.0524792  
C119     C      0.225290000000     0.234230000000     0.630790000000    -0.00664053 
C120     C      0.211070000000     0.203660000000     0.630570000000    -0.00695461 
C121     C      0.177580000000     0.200380000000     0.627010000000    -0.0515196  
C122     C      0.158630000000     0.228290000000     0.623550000000    -0.00697185 
C123     C      0.173500000000     0.453990000000     0.626160000000    -0.00704354 
C124     C      0.207180000000     0.450920000000     0.624680000000    -0.051547   
C125     C      0.226220000000     0.978990000000     0.624380000000    -0.00740834 
C126     C      0.211870000000     0.009500000000     0.625630000000    -0.00705146 
C127     C      0.178200000000     0.012530000000     0.627270000000    -0.051862   
C128     C      0.159180000000     0.484450000000     0.627460000000    -0.00695616 
C129     C      0.222420000000     0.918670000000     0.624300000000     0.281451   
C130     C      0.221540000000     0.794410000000     0.627500000000     0.281623   
C131     C      0.284240000000     0.856250000000     0.566340000000     0.282213   
C132     C      0.277200000000     0.864770000000     0.689580000000     0.282775   
C133     C      0.162760000000     0.544670000000     0.628480000000     0.281296   
C134     C      0.162290000000     0.668140000000     0.627270000000     0.281209   
C135     C      0.100570000000     0.607570000000     0.568060000000     0.282885   
C136     C      0.102010000000     0.604610000000     0.690800000000     0.283071   
C137     C      0.256430000000     0.760620000000     0.381230000000     0.281213   
C138     C      0.380230000000     0.760610000000     0.376460000000     0.281084   
C139     C      0.318960000000     0.821430000000     0.317170000000     0.283025   
C140     C      0.317980000000     0.822730000000     0.439630000000     0.283063   
C141     C      0.006400000000     0.701050000000     0.376470000000     0.281114   
C142     C      0.130230000000     0.700970000000     0.381140000000     0.281127   
C143     C      0.068610000000     0.640230000000     0.440530000000     0.282887   
C144     C      0.067410000000     0.638830000000     0.318130000000     0.282902   
C145     C      0.381200000000     0.951990000000     0.881410000000     0.281461   
C146     C      0.256840000000     0.951250000000     0.883020000000     0.28143    
C147     C      0.312050000000     0.898680000000     0.816840000000     0.282597   
C148     C      0.318870000000     0.888420000000     0.940350000000     0.281914   
C149     C      0.007430000000     0.511200000000     0.882140000000     0.28114    
C150     C      0.130830000000     0.510890000000     0.880200000000     0.281423   
C151     C      0.070470000000     0.572070000000     0.818660000000     0.282727   
C152     C      0.067890000000     0.572530000000     0.941400000000     0.283171   
C153     C      0.972770000000     0.541520000000     0.127440000000     0.280912   
C154     C      0.972570000000     0.665350000000     0.132220000000     0.281228   
C155     C      0.034220000000     0.604560000000     0.191260000000     0.282877   
C156     C      0.034160000000     0.603460000000     0.068890000000     0.28296    
C157     C      0.413040000000     0.915340000000     0.126100000000     0.280974   
C158     C      0.412940000000     0.791520000000     0.131020000000     0.281176   
C159     C      0.351560000000     0.853080000000     0.189500000000     0.28292    
C160     C      0.351520000000     0.853800000000     0.067010000000     0.282957   
C161     C      0.476280000000     0.725640000000     0.132430000000    -0.00688633 
C162     C      0.457210000000     0.697580000000     0.132590000000    -0.0515216  
C163     C      0.423510000000     0.700700000000     0.132680000000    -0.00700524 
C164     C      0.409200000000     0.731230000000     0.132390000000    -0.00685672 
C165     C      0.428270000000     0.759290000000     0.131950000000    -0.0515926  
C166     C      0.461970000000     0.756170000000     0.132090000000    -0.00695606 
C167     C      0.423710000000     0.506180000000     0.126180000000    -0.00700156 
C168     C      0.457420000000     0.509290000000     0.126500000000    -0.0513971  
C169     C      0.476470000000     0.981210000000     0.126210000000    -0.00691071 
C170     C      0.462120000000     0.950680000000     0.125870000000    -0.00699779 
C171     C      0.428420000000     0.947580000000     0.125760000000    -0.0513112  
C172     C      0.409370000000     0.475660000000     0.125790000000    -0.00697091 
C173     C      0.040640000000     0.608950000000     0.980100000000    -0.00633853 
C174     C      0.063710000000     0.585060000000     0.973770000000    -0.0526719  
C175     C      0.080010000000     0.570430000000     0.999110000000    -0.00588387 
C176     C      0.071970000000     0.578090000000     0.030270000000    -0.0064103  
C177     C      0.047110000000     0.600110000000     0.036590000000    -0.0526932  
C178     C      0.032220000000     0.616220000000     0.011260000000    -0.00599306 
C179     C      0.305950000000     0.888410000000     0.997860000000    -0.00579108 
C180     C      0.322440000000     0.874520000000     0.972240000000    -0.0523456  
C181     C      0.345390000000     0.850380000000     0.978060000000    -0.00653024 
C182     C      0.353610000000     0.842250000000     0.009090000000    -0.00593519 
C183     C      0.338610000000     0.857720000000     0.034740000000    -0.0525943  
C184     C      0.313760000000     0.879880000000     0.028840000000    -0.00636361 
C185     C      0.196540000000     0.947380000000     0.882450000000    -0.00730256 
C186     C      0.224580000000     0.966470000000     0.882890000000    -0.0515436  
C187     C      0.221480000000     0.500190000000     0.882500000000    -0.00713719 
C188     C      0.191010000000     0.514520000000     0.881550000000    -0.00692179 
C189     C      0.162970000000     0.495460000000     0.881030000000    -0.0519059  
C190     C      0.166040000000     0.961730000000     0.881570000000    -0.00700601 
C191     C      0.416780000000     0.000610000000     0.885740000000    -0.00657738 
C192     C      0.413480000000     0.967140000000     0.881930000000    -0.0523219  
C193     C      0.441380000000     0.948160000000     0.878580000000    -0.00666877 
C194     C      0.471940000000     0.462380000000     0.878880000000    -0.00695379 
C195     C      0.475220000000     0.495880000000     0.882480000000    -0.0514564  
C196     C      0.447320000000     0.514840000000     0.885980000000    -0.00703109 
C197     C      0.079460000000     0.639920000000     0.260350000000    -0.00591603 
C198     C      0.063360000000     0.625630000000     0.285990000000    -0.0526699  
C199     C      0.040660000000     0.601250000000     0.280160000000    -0.00638147 
C200     C      0.032390000000     0.593120000000     0.249160000000    -0.00604339 
C201     C      0.047100000000     0.608820000000     0.223500000000    -0.0525544  
C202     C      0.071600000000     0.631390000000     0.229360000000    -0.00648093 
C203     C      0.345310000000     0.858330000000     0.278310000000    -0.00633193 
C204     C      0.322830000000     0.833900000000     0.284740000000    -0.0527665  
C205     C      0.306790000000     0.818890000000     0.259450000000    -0.00589572 
C206     C      0.314500000000     0.826770000000     0.228260000000    -0.00651917 
C207     C      0.338790000000     0.849410000000     0.221850000000    -0.0525614  
C208     C      0.353420000000     0.865820000000     0.247130000000    -0.0060399  
C209     C      0.196140000000     0.764350000000     0.381680000000    -0.00695592 
C210     C      0.224190000000     0.745270000000     0.381850000000    -0.0514009  
C211     C      0.221050000000     0.711550000000     0.382210000000    -0.00697247 
C212     C      0.190520000000     0.697230000000     0.382190000000    -0.00695666 
C213     C      0.162470000000     0.716310000000     0.381760000000    -0.0514407  
C214     C      0.165610000000     0.750030000000     0.381610000000    -0.00696196 
C215     C      0.415610000000     0.711570000000     0.376140000000    -0.00698318 
C216     C      0.412460000000     0.745280000000     0.375840000000    -0.0514676  
C217     C      0.440490000000     0.764380000000     0.375290000000    -0.00697202 
C218     C      0.471020000000     0.750080000000     0.375310000000    -0.00689785 
C219     C      0.474170000000     0.716370000000     0.375820000000    -0.0515752  
C220     C      0.446140000000     0.697270000000     0.376110000000    -0.00688836 
C221     C      0.102020000000     0.594890000000     0.510450000000    -0.00592381 
C222     C      0.087770000000     0.611570000000     0.535780000000    -0.052613   
C223     C      0.064010000000     0.634780000000     0.529440000000    -0.00635596 
C224     C      0.056490000000     0.642930000000     0.498270000000    -0.00600766 
C225     C      0.072210000000     0.627630000000     0.472940000000    -0.0526631  
C226     C      0.094100000000     0.602660000000     0.479300000000    -0.00638183 
C227     C      0.104750000000     0.616610000000     0.748560000000    -0.00592918 
C228     C      0.089740000000     0.600510000000     0.723290000000    -0.0527216  
C229     C      0.065440000000     0.577920000000     0.729770000000    -0.00627844 
C230     C      0.057990000000     0.569830000000     0.760970000000    -0.00608672 
C231     C      0.074320000000     0.584600000000     0.786230000000    -0.0525013  
C232     C      0.096910000000     0.608920000000     0.779770000000    -0.00649072 
C233     C      0.322260000000     0.829990000000     0.528460000000    -0.00651349 
C234     C      0.297710000000     0.852480000000     0.534300000000    -0.0524308  
C235     C      0.283130000000     0.868340000000     0.508660000000    -0.00583666 
C236     C      0.291480000000     0.860350000000     0.477670000000    -0.0063795  
C237     C      0.314120000000     0.835920000000     0.471800000000    -0.0526229  
C238     C      0.330190000000     0.821560000000     0.497440000000    -0.00582654 
C239     C      0.310660000000     0.854440000000     0.738180000000    -0.00529527 
C240     C      0.287990000000     0.873110000000     0.721630000000    -0.0526492  
C241     C      0.273960000000     0.899890000000     0.736400000000    -0.00485684 
C242     C      0.282420000000     0.908120000000     0.767110000000    -0.00565747 
C243     C      0.304430000000     0.889230000000     0.784150000000    -0.0521739  
C244     C      0.318450000000     0.862170000000     0.769590000000    -0.00573161 
C245     C      0.172860000000     0.758850000000     0.623710000000    -0.00660671 
C246     C      0.206330000000     0.762140000000     0.627390000000    -0.0524766  
C247     C      0.225290000000     0.734230000000     0.630790000000    -0.00664675 
C248     C      0.211070000000     0.703660000000     0.630570000000    -0.00695115 
C249     C      0.177580000000     0.700380000000     0.627010000000    -0.0515206  
C250     C      0.158630000000     0.728290000000     0.623550000000    -0.00697066 
C251     C      0.173500000000     0.953990000000     0.626160000000    -0.00702444 
C252     C      0.207180000000     0.950920000000     0.624680000000    -0.0515886  
C253     C      0.226220000000     0.478990000000     0.624380000000    -0.00744453 
C254     C      0.211870000000     0.509500000000     0.625630000000    -0.00702678 
C255     C      0.178200000000     0.512530000000     0.627270000000    -0.051847   
C256     C      0.159180000000     0.984450000000     0.627460000000    -0.00694726 
C257     C      0.722420000000     0.418660000000     0.624300000000     0.281582   
C258     C      0.721540000000     0.294410000000     0.627500000000     0.281622   
C259     C      0.784240000000     0.356250000000     0.566340000000     0.28221    
C260     C      0.777200000000     0.364770000000     0.689580000000     0.282796   
C261     C      0.662760000000     0.044670000000     0.628480000000     0.281266   
C262     C      0.662290000000     0.168140000000     0.627270000000     0.281208   
C263     C      0.600570000000     0.107570000000     0.568060000000     0.283004   
C264     C      0.602010000000     0.104610000000     0.690800000000     0.28289    
C265     C      0.756420000000     0.260620000000     0.381230000000     0.281098   
C266     C      0.880230000000     0.260610000000     0.376460000000     0.280941   
C267     C      0.818960000000     0.321430000000     0.317170000000     0.283002   
C268     C      0.817980000000     0.322730000000     0.439630000000     0.28307    
C269     C      0.506400000000     0.201050000000     0.376470000000     0.281115   
C270     C      0.630230000000     0.200970000000     0.381140000000     0.281095   
C271     C      0.568610000000     0.140230000000     0.440530000000     0.282882   
C272     C      0.567410000000     0.138830000000     0.318130000000     0.282902   
C273     C      0.881200000000     0.451990000000     0.881410000000     0.281473   
C274     C      0.756840000000     0.451250000000     0.883020000000     0.281423   
C275     C      0.812050000000     0.398680000000     0.816840000000     0.282547   
C276     C      0.818870000000     0.388420000000     0.940350000000     0.281911   
C277     C      0.507430000000     0.011200000000     0.882140000000     0.281232   
C278     C      0.630830000000     0.010900000000     0.880200000000     0.281328   
C279     C      0.570460000000     0.072070000000     0.818660000000     0.28288    
C280     C      0.567890000000     0.072530000000     0.941400000000     0.283117   
C281     C      0.472770000000     0.041520000000     0.127440000000     0.281084   
C282     C      0.472570000000     0.165350000000     0.132220000000     0.281233   
C283     C      0.534220000000     0.104560000000     0.191260000000     0.282877   
C284     C      0.534160000000     0.103460000000     0.068890000000     0.282953   
C285     C      0.913040000000     0.415340000000     0.126100000000     0.280977   
C286     C      0.912940000000     0.291520000000     0.131020000000     0.28118    
C287     C      0.851560000000     0.353080000000     0.189500000000     0.282923   
C288     C      0.851520000000     0.353800000000     0.067010000000     0.282957   
C289     C      0.976280000000     0.225640000000     0.132430000000    -0.00690521 
C290     C      0.957210000000     0.197580000000     0.132590000000    -0.051509   
C291     C      0.923510000000     0.200700000000     0.132680000000    -0.00702254 
C292     C      0.909200000000     0.231240000000     0.132390000000    -0.00683636 
C293     C      0.928270000000     0.259290000000     0.131950000000    -0.0516038  
C294     C      0.961970000000     0.256170000000     0.132090000000    -0.00694655 
C295     C      0.923710000000     0.006180000000     0.126180000000    -0.00701352 
C296     C      0.957420000000     0.009290000000     0.126500000000    -0.0514245  
C297     C      0.976470000000     0.481210000000     0.126210000000    -0.0069738  
C298     C      0.962120000000     0.450680000000     0.125870000000    -0.00697631 
C299     C      0.928420000000     0.447580000000     0.125760000000    -0.0513238  
C300     C      0.909370000000     0.975660000000     0.125790000000    -0.00695248 
C301     C      0.540640000000     0.108950000000     0.980100000000    -0.00634035 
C302     C      0.563710000000     0.085060000000     0.973770000000    -0.0526609  
C303     C      0.580010000000     0.070430000000     0.999110000000    -0.00586757 
C304     C      0.571970000000     0.078080000000     0.030270000000    -0.00645555 
C305     C      0.547110000000     0.100110000000     0.036590000000    -0.0526739  
C306     C      0.532220000000     0.116220000000     0.011260000000    -0.00600035 
C307     C      0.805950000000     0.388410000000     0.997860000000    -0.00580175 
C308     C      0.822440000000     0.374520000000     0.972240000000    -0.0523388  
C309     C      0.845390000000     0.350380000000     0.978060000000    -0.00654404 
C310     C      0.853610000000     0.342250000000     0.009090000000    -0.00591113 
C311     C      0.838610000000     0.357730000000     0.034740000000    -0.0526026  
C312     C      0.813760000000     0.379880000000     0.028840000000    -0.00634708 
C313     C      0.696550000000     0.447380000000     0.882450000000    -0.00731137 
C314     C      0.724580000000     0.466470000000     0.882890000000    -0.0515335  
C315     C      0.721480000000     0.000180000000     0.882510000000    -0.0070702  
C316     C      0.691010000000     0.014520000000     0.881550000000    -0.00702281 
C317     C      0.662970000000     0.995460000000     0.881030000000    -0.0517779  
C318     C      0.666040000000     0.461730000000     0.881570000000    -0.00698371 
C319     C      0.916770000000     0.500610000000     0.885740000000    -0.0066051  
C320     C      0.913480000000     0.467140000000     0.881930000000    -0.0523163  
C321     C      0.941380000000     0.448160000000     0.878580000000    -0.0066693  
C322     C      0.971940000000     0.962380000000     0.878880000000    -0.00691924 
C323     C      0.975220000000     0.995880000000     0.882480000000    -0.0514473  
C324     C      0.947320000000     0.014840000000     0.885980000000    -0.0070224  
C325     C      0.579460000000     0.139920000000     0.260350000000    -0.00591664 
C326     C      0.563360000000     0.125630000000     0.285990000000    -0.0526712  
C327     C      0.540660000000     0.101250000000     0.280160000000    -0.00638279 
C328     C      0.532390000000     0.093120000000     0.249160000000    -0.00604445 
C329     C      0.547100000000     0.108820000000     0.223500000000    -0.052556   
C330     C      0.571600000000     0.131390000000     0.229360000000    -0.00648137 
C331     C      0.845310000000     0.358330000000     0.278310000000    -0.00633763 
C332     C      0.822830000000     0.333910000000     0.284740000000    -0.0527318  
C333     C      0.806790000000     0.318890000000     0.259450000000    -0.00592623 
C334     C      0.814500000000     0.326770000000     0.228260000000    -0.00650534 
C335     C      0.838790000000     0.349410000000     0.221850000000    -0.0525692  
C336     C      0.853420000000     0.365820000000     0.247130000000    -0.0060363  
C337     C      0.696140000000     0.264350000000     0.381680000000    -0.00693761 
C338     C      0.724190000000     0.245270000000     0.381850000000    -0.0514478  
C339     C      0.721050000000     0.211550000000     0.382210000000    -0.00693561 
C340     C      0.690520000000     0.197230000000     0.382190000000    -0.00700325 
C341     C      0.662470000000     0.216320000000     0.381760000000    -0.0513919  
C342     C      0.665610000000     0.250030000000     0.381610000000    -0.00697333 
C343     C      0.915610000000     0.211570000000     0.376140000000    -0.00700642 
C344     C      0.912460000000     0.245280000000     0.375840000000    -0.051425   
C345     C      0.940490000000     0.264380000000     0.375290000000    -0.00697883 
C346     C      0.971020000000     0.250080000000     0.375310000000    -0.00692501 
C347     C      0.974170000000     0.216370000000     0.375820000000    -0.0515744  
C348     C      0.946140000000     0.197270000000     0.376100000000    -0.00688251 
C349     C      0.602020000000     0.094890000000     0.510450000000    -0.00587407 
C350     C      0.587780000000     0.111570000000     0.535780000000    -0.0526959  
C351     C      0.564010000000     0.134780000000     0.529440000000    -0.00633041 
C352     C      0.556490000000     0.142930000000     0.498270000000    -0.00602418 
C353     C      0.572210000000     0.127630000000     0.472940000000    -0.0526495  
C354     C      0.594100000000     0.102660000000     0.479300000000    -0.00640761 
C355     C      0.604750000000     0.116610000000     0.748560000000    -0.0059826  
C356     C      0.589740000000     0.100510000000     0.723290000000    -0.0526447  
C357     C      0.565440000000     0.077920000000     0.729770000000    -0.00631493 
C358     C      0.557990000000     0.069830000000     0.760970000000    -0.00607103 
C359     C      0.574330000000     0.084600000000     0.786230000000    -0.0525509  
C360     C      0.596910000000     0.108920000000     0.779770000000    -0.00643301 
C361     C      0.822260000000     0.329990000000     0.528460000000    -0.00652026 
C362     C      0.797710000000     0.352480000000     0.534300000000    -0.0524234  
C363     C      0.783130000000     0.368340000000     0.508660000000    -0.00585581 
C364     C      0.791480000000     0.360350000000     0.477670000000    -0.00633897 
C365     C      0.814120000000     0.335920000000     0.471800000000    -0.0526506  
C366     C      0.830190000000     0.321560000000     0.497440000000    -0.00581459 
C367     C      0.810660000000     0.354440000000     0.738180000000    -0.00524109 
C368     C      0.787990000000     0.373110000000     0.721630000000    -0.0527153  
C369     C      0.773970000000     0.399890000000     0.736400000000    -0.00474471 
C370     C      0.782430000000     0.408130000000     0.767110000000    -0.0057601  
C371     C      0.804430000000     0.389230000000     0.784150000000    -0.0521169  
C372     C      0.818450000000     0.362170000000     0.769590000000    -0.0057757  
C373     C      0.672860000000     0.258850000000     0.623710000000    -0.00661192 
C374     C      0.706330000000     0.262140000000     0.627390000000    -0.0524765  
C375     C      0.725290000000     0.234230000000     0.630790000000    -0.00664265 
C376     C      0.711070000000     0.203660000000     0.630570000000    -0.00695209 
C377     C      0.677580000000     0.200380000000     0.627010000000    -0.0515241  
C378     C      0.658630000000     0.228290000000     0.623560000000    -0.00696119 
C379     C      0.673510000000     0.453990000000     0.626160000000    -0.00696338 
C380     C      0.707180000000     0.450920000000     0.624680000000    -0.0515969  
C381     C      0.726220000000     0.978990000000     0.624380000000    -0.00735249 
C382     C      0.711880000000     0.009500000000     0.625630000000    -0.00713184 
C383     C      0.678200000000     0.012530000000     0.627270000000    -0.051811   
C384     C      0.659180000000     0.484450000000     0.627460000000    -0.00701346 
C385     C      0.722420000000     0.918670000000     0.624300000000     0.281469   
C386     C      0.721540000000     0.794410000000     0.627500000000     0.281624   
C387     C      0.784240000000     0.856250000000     0.566340000000     0.28222    
C388     C      0.777200000000     0.864770000000     0.689580000000     0.282799   
C389     C      0.662760000000     0.544670000000     0.628480000000     0.281267   
C390     C      0.662290000000     0.668140000000     0.627270000000     0.281207   
C391     C      0.600570000000     0.607570000000     0.568060000000     0.282989   
C392     C      0.602010000000     0.604610000000     0.690800000000     0.282888   
C393     C      0.756420000000     0.760620000000     0.381230000000     0.281087   
C394     C      0.880230000000     0.760610000000     0.376460000000     0.281097   
C395     C      0.818960000000     0.821430000000     0.317170000000     0.282992   
C396     C      0.817980000000     0.822730000000     0.439630000000     0.283063   
C397     C      0.506400000000     0.701050000000     0.376470000000     0.281115   
C398     C      0.630230000000     0.700970000000     0.381140000000     0.281087   
C399     C      0.568610000000     0.640230000000     0.440530000000     0.28288    
C400     C      0.567410000000     0.638830000000     0.318130000000     0.282896   
C401     C      0.881200000000     0.951990000000     0.881410000000     0.281467   
C402     C      0.756840000000     0.951250000000     0.883020000000     0.281429   
C403     C      0.812050000000     0.898680000000     0.816840000000     0.282581   
C404     C      0.818870000000     0.888420000000     0.940350000000     0.281973   
C405     C      0.507430000000     0.511200000000     0.882140000000     0.281129   
C406     C      0.630830000000     0.510890000000     0.880200000000     0.281322   
C407     C      0.570460000000     0.572070000000     0.818660000000     0.282886   
C408     C      0.567890000000     0.572530000000     0.941400000000     0.283173   
C409     C      0.472770000000     0.541520000000     0.127440000000     0.280821   
C410     C      0.472570000000     0.665350000000     0.132220000000     0.281233   
C411     C      0.534220000000     0.604560000000     0.191260000000     0.282881   
C412     C      0.534160000000     0.603460000000     0.068890000000     0.28296    
C413     C      0.913040000000     0.915340000000     0.126100000000     0.28098    
C414     C      0.912940000000     0.791520000000     0.131020000000     0.281163   
C415     C      0.851560000000     0.853080000000     0.189500000000     0.283111   
C416     C      0.851520000000     0.853800000000     0.067010000000     0.282955   
C417     C      0.976280000000     0.725640000000     0.132430000000    -0.0068832  
C418     C      0.957210000000     0.697580000000     0.132590000000    -0.0515359  
C419     C      0.923510000000     0.700700000000     0.132680000000    -0.0069637  
C420     C      0.909190000000     0.731230000000     0.132390000000    -0.00693555 
C421     C      0.928270000000     0.759290000000     0.131950000000    -0.0515543  
C422     C      0.961970000000     0.756170000000     0.132090000000    -0.00697199 
C423     C      0.923710000000     0.506180000000     0.126180000000    -0.00698406 
C424     C      0.957420000000     0.509290000000     0.126500000000    -0.0514388  
C425     C      0.976470000000     0.981210000000     0.126210000000    -0.0069619  
C426     C      0.962120000000     0.950680000000     0.125870000000    -0.00697366 
C427     C      0.928420000000     0.947580000000     0.125760000000    -0.0513293  
C428     C      0.909370000000     0.475660000000     0.125790000000    -0.00698022 
C429     C      0.540640000000     0.608950000000     0.980100000000    -0.00633879 
C430     C      0.563710000000     0.585060000000     0.973770000000    -0.0526731  
C431     C      0.580010000000     0.570430000000     0.999110000000    -0.00588383 
C432     C      0.571970000000     0.578090000000     0.030270000000    -0.0064106  
C433     C      0.547110000000     0.600110000000     0.036590000000    -0.0526941  
C434     C      0.532220000000     0.616220000000     0.011260000000    -0.00599366 
C435     C      0.805950000000     0.888410000000     0.997860000000    -0.00577849 
C436     C      0.822440000000     0.874520000000     0.972240000000    -0.05237    
C437     C      0.845390000000     0.850380000000     0.978060000000    -0.00651794 
C438     C      0.853610000000     0.842250000000     0.009090000000    -0.00594143 
C439     C      0.838610000000     0.857720000000     0.034740000000    -0.0525893  
C440     C      0.813760000000     0.879880000000     0.028840000000    -0.00636991 
C441     C      0.696540000000     0.947380000000     0.882450000000    -0.00730299 
C442     C      0.724580000000     0.966470000000     0.882890000000    -0.0515441  
C443     C      0.721480000000     0.500190000000     0.882500000000    -0.00712467 
C444     C      0.691010000000     0.514520000000     0.881550000000    -0.00694323 
C445     C      0.662970000000     0.495460000000     0.881030000000    -0.0518583  
C446     C      0.666040000000     0.961730000000     0.881570000000    -0.00700596 
C447     C      0.916770000000     0.000610000000     0.885740000000    -0.00662553 
C448     C      0.913480000000     0.967140000000     0.881930000000    -0.0522935  
C449     C      0.941380000000     0.948160000000     0.878580000000    -0.00668757 
C450     C      0.971940000000     0.462380000000     0.878880000000    -0.00695139 
C451     C      0.975220000000     0.495880000000     0.882480000000    -0.0514746  
C452     C      0.947320000000     0.514840000000     0.885980000000    -0.00700303 
C453     C      0.579460000000     0.639920000000     0.260350000000    -0.0059233  
C454     C      0.563360000000     0.625630000000     0.285990000000    -0.0526575  
C455     C      0.540660000000     0.601250000000     0.280160000000    -0.00641462 
C456     C      0.532390000000     0.593120000000     0.249160000000    -0.00602626 
C457     C      0.547100000000     0.608820000000     0.223500000000    -0.0525633  
C458     C      0.571600000000     0.631390000000     0.229360000000    -0.00647474 
C459     C      0.845310000000     0.858330000000     0.278310000000    -0.0063664  
C460     C      0.822830000000     0.833910000000     0.284740000000    -0.0527046  
C461     C      0.806790000000     0.818890000000     0.259450000000    -0.00597219 
C462     C      0.814510000000     0.826770000000     0.228260000000    -0.00642323 
C463     C      0.838790000000     0.849410000000     0.221850000000    -0.0526644  
C464     C      0.853420000000     0.865820000000     0.247130000000    -0.00598679 
C465     C      0.696140000000     0.764350000000     0.381680000000    -0.00692006 
C466     C      0.724190000000     0.745270000000     0.381850000000    -0.0514618  
C467     C      0.721050000000     0.711550000000     0.382210000000    -0.00692519 
C468     C      0.690520000000     0.697230000000     0.382190000000    -0.00701492 
C469     C      0.662470000000     0.716320000000     0.381760000000    -0.0513698  
C470     C      0.665610000000     0.750030000000     0.381610000000    -0.0070158  
C471     C      0.915610000000     0.711570000000     0.376140000000    -0.00697429 
C472     C      0.912460000000     0.745280000000     0.375840000000    -0.0514812  
C473     C      0.940490000000     0.764380000000     0.375290000000    -0.00695197 
C474     C      0.971020000000     0.750080000000     0.375310000000    -0.00693954 
C475     C      0.974170000000     0.716370000000     0.375820000000    -0.0515608  
C476     C      0.946140000000     0.697270000000     0.376100000000    -0.00689842 
C477     C      0.602020000000     0.594890000000     0.510450000000    -0.00589147 
C478     C      0.587770000000     0.611570000000     0.535780000000    -0.0526827  
C479     C      0.564020000000     0.634780000000     0.529440000000    -0.0062887  
C480     C      0.556490000000     0.642930000000     0.498270000000    -0.00604698 
C481     C      0.572210000000     0.627630000000     0.472940000000    -0.0526432  
C482     C      0.594100000000     0.602660000000     0.479300000000    -0.00640332 
C483     C      0.604750000000     0.616610000000     0.748560000000    -0.00598014 
C484     C      0.589740000000     0.600510000000     0.723290000000    -0.0526414  
C485     C      0.565440000000     0.577920000000     0.729770000000    -0.00632161 
C486     C      0.557990000000     0.569830000000     0.760970000000    -0.00605316 
C487     C      0.574320000000     0.584600000000     0.786230000000    -0.0525599  
C488     C      0.596910000000     0.608920000000     0.779770000000    -0.00644078 
C489     C      0.822260000000     0.829990000000     0.528460000000    -0.0065031  
C490     C      0.797710000000     0.852480000000     0.534300000000    -0.0524533  
C491     C      0.783140000000     0.868340000000     0.508660000000    -0.00579772 
C492     C      0.791480000000     0.860350000000     0.477670000000    -0.00637821 
C493     C      0.814120000000     0.835920000000     0.471800000000    -0.0526271  
C494     C      0.830190000000     0.821560000000     0.497440000000    -0.00583033 
C495     C      0.810660000000     0.854440000000     0.738180000000    -0.00524101 
C496     C      0.787990000000     0.873110000000     0.721630000000    -0.0527216  
C497     C      0.773970000000     0.899890000000     0.736400000000    -0.00472698 
C498     C      0.782430000000     0.908130000000     0.767110000000    -0.00574111 
C499     C      0.804430000000     0.889230000000     0.784150000000    -0.052131   
C500     C      0.818450000000     0.862170000000     0.769590000000    -0.00577011 
C501     C      0.672860000000     0.758850000000     0.623710000000    -0.00660539 
C502     C      0.706330000000     0.762140000000     0.627390000000    -0.0524799  
C503     C      0.725290000000     0.734230000000     0.630790000000    -0.00664011 
C504     C      0.711070000000     0.703660000000     0.630570000000    -0.00695492 
C505     C      0.677580000000     0.700380000000     0.627010000000    -0.051519   
C506     C      0.658630000000     0.728290000000     0.623550000000    -0.00697244 
C507     C      0.673510000000     0.953990000000     0.626160000000    -0.00694413 
C508     C      0.707180000000     0.950920000000     0.624680000000    -0.0516395  
C509     C      0.726220000000     0.478990000000     0.624380000000    -0.00738977 
C510     C      0.711880000000     0.509500000000     0.625630000000    -0.00710448 
C511     C      0.678200000000     0.512530000000     0.627270000000    -0.0518022  
C512     C      0.659180000000     0.984450000000     0.627460000000    -0.00700358 
Cd1      Cd     0.252680000000     0.356630000000     0.626770000000     0.511619   
Cd2      Cd     0.130990000000     0.106300000000     0.629040000000     0.511237   
Cd3      Cd     0.318350000000     0.292010000000     0.378700000000     0.510924   
Cd4      Cd     0.068260000000     0.169630000000     0.379010000000     0.511021   
Cd5      Cd     0.318920000000     0.421120000000     0.880540000000     0.511987   
Cd6      Cd     0.069190000000     0.042590000000     0.880210000000     0.51131    
Cd7      Cd     0.004080000000     0.103520000000     0.130080000000     0.510988   
Cd8      Cd     0.381580000000     0.353420000000     0.128260000000     0.510943   
Cd9      Cd     0.252680000000     0.856630000000     0.626770000000     0.511619   
Cd10     Cd     0.130990000000     0.606300000000     0.629040000000     0.511222   
Cd11     Cd     0.318350000000     0.792010000000     0.378700000000     0.51093    
Cd12     Cd     0.068270000000     0.669630000000     0.379010000000     0.511022   
Cd13     Cd     0.318920000000     0.921120000000     0.880540000000     0.511998   
Cd14     Cd     0.069190000000     0.542590000000     0.880210000000     0.511338   
Cd15     Cd     0.004080000000     0.603520000000     0.130080000000     0.511008   
Cd16     Cd     0.381580000000     0.853420000000     0.128260000000     0.510959   
Cd17     Cd     0.752680000000     0.356630000000     0.626770000000     0.511619   
Cd18     Cd     0.630980000000     0.106300000000     0.629040000000     0.511243   
Cd19     Cd     0.818350000000     0.292010000000     0.378700000000     0.510932   
Cd20     Cd     0.568260000000     0.169630000000     0.379010000000     0.511021   
Cd21     Cd     0.818920000000     0.421120000000     0.880540000000     0.511979   
Cd22     Cd     0.569190000000     0.042590000000     0.880210000000     0.5113     
Cd23     Cd     0.504080000000     0.103520000000     0.130080000000     0.511002   
Cd24     Cd     0.881580000000     0.353420000000     0.128260000000     0.510959   
Cd25     Cd     0.752680000000     0.856630000000     0.626770000000     0.511619   
Cd26     Cd     0.630990000000     0.606300000000     0.629040000000     0.511245   
Cd27     Cd     0.818350000000     0.792010000000     0.378700000000     0.510947   
Cd28     Cd     0.568260000000     0.669630000000     0.379010000000     0.511021   
Cd29     Cd     0.818920000000     0.921120000000     0.880540000000     0.511988   
Cd30     Cd     0.569190000000     0.542590000000     0.880210000000     0.511318   
Cd31     Cd     0.504080000000     0.603520000000     0.130080000000     0.510987   
Cd32     Cd     0.881580000000     0.853420000000     0.128260000000     0.510968   
H1       H      0.002350000000     0.224070000000     0.132370000000     0.0577094  
H2       H      0.408170000000     0.179570000000     0.132820000000     0.0579373  
H3       H      0.383130000000     0.232820000000     0.132320000000     0.057674   
H4       H      0.477320000000     0.277300000000     0.131790000000     0.0579482  
H5       H      0.408380000000     0.027320000000     0.126360000000     0.0579738  
H6       H      0.002530000000     0.482770000000     0.126420000000     0.0577075  
H7       H      0.477460000000     0.429540000000     0.125840000000     0.0579475  
H8       H      0.383310000000     0.974100000000     0.125710000000     0.0577421  
H9       H      0.027700000000     0.120610000000     0.961040000000     0.0574736  
H10      H      0.098070000000     0.052060000000     0.994880000000     0.0565244  
H11      H      0.083880000000     0.065340000000     0.049300000000     0.0575965  
H12      H      0.013100000000     0.133490000000     0.015480000000     0.0566675  
H13      H      0.287990000000     0.406970000000     0.994010000000     0.0564675  
H14      H      0.358490000000     0.339320000000     0.958760000000     0.0571341  
H15      H      0.372730000000     0.324900000000     0.012970000000     0.0565745  
H16      H      0.301740000000     0.392140000000     0.048120000000     0.0576999  
H17      H      0.198130000000     0.421310000000     0.882690000000     0.0574237  
H18      H      0.242590000000     0.015550000000     0.882760000000     0.0583217  
H19      H      0.189470000000     0.040590000000     0.881230000000     0.0577997  
H20      H      0.144900000000     0.446410000000     0.881240000000     0.0578655  
H21      H      0.395760000000     0.515880000000     0.888410000000     0.0579751  
H22      H      0.439640000000     0.422270000000     0.875660000000     0.057635   
H23      H      0.492950000000     0.947140000000     0.876110000000     0.0581235  
H24      H      0.449040000000     0.040740000000     0.888820000000     0.0577588  
H25      H      0.097240000000     0.158660000000     0.264190000000     0.0565209  
H26      H      0.027870000000     0.089820000000     0.299460000000     0.0575     
H27      H      0.013550000000     0.075460000000     0.245310000000     0.0565806  
H28      H      0.083340000000     0.143870000000     0.210060000000     0.0576008  
H29      H      0.358040000000     0.370310000000     0.297320000000     0.0575218  
H30      H      0.289180000000     0.300100000000     0.263740000000     0.0565498  
H31      H      0.302830000000     0.313760000000     0.209260000000     0.0575394  
H32      H      0.372100000000     0.383550000000     0.242850000000     0.0565691  
H33      H      0.197720000000     0.290420000000     0.381400000000     0.0577279  
H34      H      0.242170000000     0.196190000000     0.382360000000     0.057946   
H35      H      0.188930000000     0.171160000000     0.382330000000     0.0577069  
H36      H      0.144490000000     0.265390000000     0.381300000000     0.0579672  
H37      H      0.394500000000     0.196200000000     0.376540000000     0.0579541  
H38      H      0.438890000000     0.290450000000     0.375030000000     0.0577174  
H39      H      0.992130000000     0.265450000000     0.375060000000     0.0579077  
H40      H      0.447730000000     0.171200000000     0.376500000000     0.0577015  
H41      H      0.120280000000     0.076720000000     0.514680000000     0.0565201  
H42      H      0.052660000000     0.148010000000     0.548490000000     0.057444   
H43      H      0.039330000000     0.162140000000     0.494030000000     0.0566552  
H44      H      0.106550000000     0.090440000000     0.460260000000     0.0575942  
H45      H      0.123450000000     0.134300000000     0.744230000000     0.056682   
H46      H      0.053480000000     0.065140000000     0.710780000000     0.0575308  
H47      H      0.040310000000     0.051120000000     0.765290000000     0.0567621  
H48      H      0.109860000000     0.120700000000     0.798750000000     0.0575553  
H49      H      0.333850000000     0.317380000000     0.547770000000     0.05721    
H50      H      0.264240000000     0.385940000000     0.512530000000     0.0564559  
H51      H      0.278730000000     0.371850000000     0.458400000000     0.0576428  
H52      H      0.347920000000     0.302780000000     0.493560000000     0.0565275  
H53      H      0.321590000000     0.333540000000     0.727190000000     0.0538884  
H54      H      0.256470000000     0.414680000000     0.724070000000     0.0551606  
H55      H      0.271140000000     0.429030000000     0.777790000000     0.0564678  
H56      H      0.335580000000     0.347330000000     0.782310000000     0.0549998  
H57      H      0.157610000000     0.279870000000     0.621000000000     0.0579795  
H58      H      0.251190000000     0.235950000000     0.633620000000     0.0575623  
H59      H      0.226310000000     0.182630000000     0.633320000000     0.0580668  
H60      H      0.132730000000     0.226570000000     0.620760000000     0.0577467  
H61      H      0.158170000000     0.432850000000     0.626500000000     0.0584405  
H62      H      0.252260000000     0.977430000000     0.623310000000     0.0571499  
H63      H      0.227170000000     0.030670000000     0.625390000000     0.0577437  
H64      H      0.133140000000     0.485960000000     0.628640000000     0.0578104  
H65      H      0.002350000000     0.724070000000     0.132370000000     0.0577042  
H66      H      0.408170000000     0.679570000000     0.132820000000     0.057938   
H67      H      0.383130000000     0.732820000000     0.132320000000     0.0576746  
H68      H      0.477320000000     0.777300000000     0.131790000000     0.0579487  
H69      H      0.408380000000     0.527320000000     0.126360000000     0.0579861  
H70      H      0.002530000000     0.982770000000     0.126420000000     0.0577131  
H71      H      0.477460000000     0.929540000000     0.125840000000     0.0579563  
H72      H      0.383310000000     0.474100000000     0.125710000000     0.0577364  
H73      H      0.027700000000     0.620610000000     0.961040000000     0.0574853  
H74      H      0.098070000000     0.552060000000     0.994880000000     0.0565374  
H75      H      0.083880000000     0.565340000000     0.049300000000     0.0575771  
H76      H      0.013100000000     0.633490000000     0.015480000000     0.0566444  
H77      H      0.287990000000     0.906970000000     0.994010000000     0.0564726  
H78      H      0.358490000000     0.839320000000     0.958760000000     0.0571344  
H79      H      0.372720000000     0.824900000000     0.012970000000     0.0565832  
H80      H      0.301740000000     0.892140000000     0.048120000000     0.0577037  
H81      H      0.198130000000     0.921310000000     0.882690000000     0.0574234  
H82      H      0.242590000000     0.515550000000     0.882760000000     0.0583501  
H83      H      0.189470000000     0.540590000000     0.881230000000     0.057776   
H84      H      0.144900000000     0.946410000000     0.881240000000     0.0578846  
H85      H      0.395760000000     0.015880000000     0.888410000000     0.0579751  
H86      H      0.439650000000     0.922270000000     0.875660000000     0.0576254  
H87      H      0.492950000000     0.447140000000     0.876110000000     0.0581209  
H88      H      0.449040000000     0.540740000000     0.888820000000     0.05776    
H89      H      0.097240000000     0.658660000000     0.264190000000     0.056525   
H90      H      0.027870000000     0.589830000000     0.299450000000     0.0575249  
H91      H      0.013550000000     0.575460000000     0.245310000000     0.0565745  
H92      H      0.083340000000     0.643870000000     0.210060000000     0.057598   
H93      H      0.358040000000     0.870310000000     0.297320000000     0.0575175  
H94      H      0.289180000000     0.800100000000     0.263740000000     0.0565377  
H95      H      0.302830000000     0.813760000000     0.209260000000     0.0575378  
H96      H      0.372100000000     0.883550000000     0.242850000000     0.0565739  
H97      H      0.197720000000     0.790420000000     0.381400000000     0.0577292  
H98      H      0.242170000000     0.696190000000     0.382360000000     0.057951   
H99      H      0.188930000000     0.671160000000     0.382330000000     0.0576994  
H100     H      0.144490000000     0.765390000000     0.381300000000     0.0579669  
H101     H      0.394500000000     0.696200000000     0.376540000000     0.0579554  
H102     H      0.438890000000     0.790450000000     0.375040000000     0.0577196  
H103     H      0.992130000000     0.765450000000     0.375060000000     0.0579118  
H104     H      0.447730000000     0.671200000000     0.376500000000     0.0577024  
H105     H      0.120280000000     0.576720000000     0.514680000000     0.0565225  
H106     H      0.052660000000     0.648010000000     0.548490000000     0.0574447  
H107     H      0.039330000000     0.662140000000     0.494030000000     0.0566561  
H108     H      0.106550000000     0.590440000000     0.460260000000     0.0575958  
H109     H      0.123450000000     0.634300000000     0.744230000000     0.0566825  
H110     H      0.053480000000     0.565140000000     0.710780000000     0.0575343  
H111     H      0.040310000000     0.551120000000     0.765290000000     0.0567651  
H112     H      0.109860000000     0.620700000000     0.798750000000     0.0575537  
H113     H      0.333850000000     0.817380000000     0.547770000000     0.0572123  
H114     H      0.264250000000     0.885940000000     0.512530000000     0.0564666  
H115     H      0.278740000000     0.871850000000     0.458400000000     0.0576558  
H116     H      0.347920000000     0.802780000000     0.493570000000     0.0565214  
H117     H      0.321590000000     0.833550000000     0.727190000000     0.0539154  
H118     H      0.256470000000     0.914670000000     0.724080000000     0.0552137  
H119     H      0.271140000000     0.929030000000     0.777790000000     0.0564339  
H120     H      0.335580000000     0.847330000000     0.782310000000     0.0549848  
H121     H      0.157610000000     0.779870000000     0.621000000000     0.0579799  
H122     H      0.251190000000     0.735950000000     0.633610000000     0.0575652  
H123     H      0.226310000000     0.682630000000     0.633320000000     0.0580668  
H124     H      0.132730000000     0.726570000000     0.620760000000     0.0577467  
H125     H      0.158170000000     0.932850000000     0.626500000000     0.0584364  
H126     H      0.252260000000     0.477430000000     0.623310000000     0.0571561  
H127     H      0.227170000000     0.530670000000     0.625390000000     0.0577419  
H128     H      0.133140000000     0.985960000000     0.628630000000     0.0578079  
H129     H      0.502350000000     0.224070000000     0.132360000000     0.0576996  
H130     H      0.908170000000     0.179570000000     0.132820000000     0.0579416  
H131     H      0.883130000000     0.232820000000     0.132320000000     0.0576678  
H132     H      0.977320000000     0.277300000000     0.131790000000     0.057944   
H133     H      0.908380000000     0.027320000000     0.126360000000     0.0579905  
H134     H      0.502530000000     0.482770000000     0.126420000000     0.0577051  
H135     H      0.977460000000     0.429540000000     0.125840000000     0.0579471  
H136     H      0.883310000000     0.974100000000     0.125710000000     0.0577367  
H137     H      0.527700000000     0.120610000000     0.961040000000     0.0574867  
H138     H      0.598070000000     0.052060000000     0.994880000000     0.0565306  
H139     H      0.583880000000     0.065340000000     0.049300000000     0.0575905  
H140     H      0.513100000000     0.133490000000     0.015480000000     0.056644   
H141     H      0.787990000000     0.406970000000     0.994010000000     0.0564731  
H142     H      0.858490000000     0.339320000000     0.958760000000     0.057137   
H143     H      0.872730000000     0.324900000000     0.012970000000     0.0565724  
H144     H      0.801740000000     0.392140000000     0.048120000000     0.0576979  
H145     H      0.698140000000     0.421310000000     0.882690000000     0.0574276  
H146     H      0.742590000000     0.015550000000     0.882760000000     0.0583216  
H147     H      0.689470000000     0.040590000000     0.881230000000     0.0577994  
H148     H      0.644900000000     0.446410000000     0.881240000000     0.0578758  
H149     H      0.895760000000     0.515880000000     0.888410000000     0.0579927  
H150     H      0.939650000000     0.422270000000     0.875660000000     0.0576311  
H151     H      0.992960000000     0.947140000000     0.876120000000     0.0581113  
H152     H      0.949040000000     0.040740000000     0.888820000000     0.0577538  
H153     H      0.597240000000     0.158660000000     0.264190000000     0.0565245  
H154     H      0.527870000000     0.089830000000     0.299450000000     0.0575217  
H155     H      0.513550000000     0.075460000000     0.245310000000     0.0565711  
H156     H      0.583340000000     0.143870000000     0.210060000000     0.0575973  
H157     H      0.858040000000     0.370310000000     0.297320000000     0.0575166  
H158     H      0.789180000000     0.300100000000     0.263740000000     0.0565452  
H159     H      0.802830000000     0.313760000000     0.209260000000     0.0575339  
H160     H      0.872100000000     0.383550000000     0.242850000000     0.0565707  
H161     H      0.697720000000     0.290420000000     0.381400000000     0.0577212  
H162     H      0.742170000000     0.196190000000     0.382360000000     0.0579398  
H163     H      0.688930000000     0.171160000000     0.382330000000     0.0577091  
H164     H      0.644490000000     0.265390000000     0.381300000000     0.057968   
H165     H      0.894500000000     0.196200000000     0.376540000000     0.0579547  
H166     H      0.938890000000     0.290450000000     0.375030000000     0.0577195  
H167     H      0.492140000000     0.265450000000     0.375060000000     0.0579026  
H168     H      0.947730000000     0.171200000000     0.376490000000     0.0576972  
H169     H      0.620280000000     0.076720000000     0.514680000000     0.0565068  
H170     H      0.552660000000     0.148010000000     0.548490000000     0.0574331  
H171     H      0.539330000000     0.162140000000     0.494030000000     0.0566575  
H172     H      0.606550000000     0.090440000000     0.460260000000     0.0576001  
H173     H      0.623450000000     0.134300000000     0.744230000000     0.0566938  
H174     H      0.553480000000     0.065140000000     0.710780000000     0.0575406  
H175     H      0.540310000000     0.051120000000     0.765290000000     0.0567525  
H176     H      0.609860000000     0.120700000000     0.798750000000     0.0575457  
H177     H      0.833850000000     0.317380000000     0.547770000000     0.0572144  
H178     H      0.764250000000     0.385940000000     0.512530000000     0.0564701  
H179     H      0.778740000000     0.371850000000     0.458390000000     0.0576424  
H180     H      0.847920000000     0.302780000000     0.493560000000     0.0565206  
H181     H      0.821580000000     0.333540000000     0.727190000000     0.0538987  
H182     H      0.756480000000     0.414680000000     0.724070000000     0.0551765  
H183     H      0.771150000000     0.429030000000     0.777790000000     0.0564649  
H184     H      0.835580000000     0.347330000000     0.782310000000     0.0549976  
H185     H      0.657610000000     0.279870000000     0.621000000000     0.0579806  
H186     H      0.751190000000     0.235950000000     0.633620000000     0.0575628  
H187     H      0.726310000000     0.182630000000     0.633320000000     0.0580665  
H188     H      0.632730000000     0.226570000000     0.620760000000     0.0577422  
H189     H      0.658170000000     0.432850000000     0.626500000000     0.0584142  
H190     H      0.752260000000     0.977430000000     0.623310000000     0.0571362  
H191     H      0.727170000000     0.030670000000     0.625390000000     0.0577699  
H192     H      0.633140000000     0.485960000000     0.628640000000     0.0578165  
H193     H      0.502350000000     0.724070000000     0.132360000000     0.0576998  
H194     H      0.908170000000     0.679570000000     0.132820000000     0.0579275  
H195     H      0.883130000000     0.732820000000     0.132320000000     0.0577018  
H196     H      0.977320000000     0.777300000000     0.131790000000     0.0579506  
H197     H      0.908380000000     0.527320000000     0.126360000000     0.0579766  
H198     H      0.502530000000     0.982770000000     0.126420000000     0.057692   
H199     H      0.977460000000     0.929540000000     0.125840000000     0.0579483  
H200     H      0.883310000000     0.474100000000     0.125710000000     0.0577379  
H201     H      0.527700000000     0.620610000000     0.961040000000     0.0574836  
H202     H      0.598070000000     0.552060000000     0.994880000000     0.0565371  
H203     H      0.583880000000     0.565340000000     0.049300000000     0.0575767  
H204     H      0.513100000000     0.633490000000     0.015480000000     0.0566427  
H205     H      0.787990000000     0.906970000000     0.994010000000     0.0564667  
H206     H      0.858490000000     0.839320000000     0.958760000000     0.057131   
H207     H      0.872720000000     0.824900000000     0.012970000000     0.0565846  
H208     H      0.801740000000     0.892140000000     0.048120000000     0.0577055  
H209     H      0.698130000000     0.921310000000     0.882690000000     0.0574226  
H210     H      0.742590000000     0.515550000000     0.882760000000     0.0583472  
H211     H      0.689470000000     0.540590000000     0.881230000000     0.0577831  
H212     H      0.644900000000     0.946410000000     0.881240000000     0.0578842  
H213     H      0.895760000000     0.015880000000     0.888410000000     0.057992   
H214     H      0.939640000000     0.922270000000     0.875660000000     0.0576422  
H215     H      0.992950000000     0.447140000000     0.876120000000     0.0581165  
H216     H      0.949040000000     0.540740000000     0.888820000000     0.0577516  
H217     H      0.597240000000     0.658660000000     0.264190000000     0.0565267  
H218     H      0.527880000000     0.589830000000     0.299450000000     0.0575368  
H219     H      0.513550000000     0.575460000000     0.245310000000     0.0565694  
H220     H      0.583340000000     0.643870000000     0.210060000000     0.0575962  
H221     H      0.858040000000     0.870310000000     0.297320000000     0.0575254  
H222     H      0.789180000000     0.800100000000     0.263740000000     0.0565566  
H223     H      0.802830000000     0.813760000000     0.209260000000     0.0575079  
H224     H      0.872100000000     0.883550000000     0.242850000000     0.0565615  
H225     H      0.697720000000     0.790420000000     0.381400000000     0.0577096  
H226     H      0.742170000000     0.696190000000     0.382360000000     0.0579379  
H227     H      0.688930000000     0.671160000000     0.382330000000     0.0577128  
H228     H      0.644500000000     0.765390000000     0.381300000000     0.05798    
H229     H      0.894500000000     0.696200000000     0.376540000000     0.0579525  
H230     H      0.938890000000     0.790450000000     0.375030000000     0.0577124  
H231     H      0.492140000000     0.765450000000     0.375060000000     0.057903   
H232     H      0.947730000000     0.671200000000     0.376490000000     0.0577025  
H233     H      0.620280000000     0.576720000000     0.514680000000     0.0565127  
H234     H      0.552660000000     0.648010000000     0.548490000000     0.0574192  
H235     H      0.539330000000     0.662140000000     0.494030000000     0.0566635  
H236     H      0.606550000000     0.590440000000     0.460260000000     0.0576008  
H237     H      0.623450000000     0.634300000000     0.744230000000     0.0566936  
H238     H      0.553480000000     0.565140000000     0.710780000000     0.057545   
H239     H      0.540310000000     0.551120000000     0.765290000000     0.0567517  
H240     H      0.609860000000     0.620700000000     0.798750000000     0.0575483  
H241     H      0.833850000000     0.817380000000     0.547770000000     0.0572106  
H242     H      0.764250000000     0.885940000000     0.512530000000     0.0564501  
H243     H      0.778730000000     0.871850000000     0.458400000000     0.0576483  
H244     H      0.847920000000     0.802780000000     0.493560000000     0.0565251  
H245     H      0.821580000000     0.833540000000     0.727190000000     0.053899   
H246     H      0.756470000000     0.914680000000     0.724070000000     0.0551704  
H247     H      0.771140000000     0.929030000000     0.777790000000     0.0564566  
H248     H      0.835580000000     0.847330000000     0.782310000000     0.0549944  
H249     H      0.657610000000     0.779870000000     0.621000000000     0.0579789  
H250     H      0.751190000000     0.735950000000     0.633620000000     0.0575624  
H251     H      0.726310000000     0.682630000000     0.633320000000     0.0580675  
H252     H      0.632730000000     0.726570000000     0.620760000000     0.0577463  
H253     H      0.658170000000     0.932850000000     0.626500000000     0.0584098  
H254     H      0.752260000000     0.477430000000     0.623310000000     0.0571429  
H255     H      0.727170000000     0.530670000000     0.625390000000     0.0577671  
H256     H      0.633140000000     0.985960000000     0.628630000000     0.0578203  
O1       O      0.205480000000     0.320100000000     0.623600000000    -0.226638   
O2       O      0.296410000000     0.356820000000     0.667600000000    -0.224202   
O3       O      0.205860000000     0.392880000000     0.624700000000    -0.222302   
O4       O      0.255290000000     0.364900000000     0.570080000000    -0.234164   
O5       O      0.299560000000     0.348240000000     0.591060000000    -0.226568   
O6       O      0.252810000000     0.415450000000     0.624370000000    -0.232369   
O7       O      0.251570000000     0.297760000000     0.631300000000    -0.235101   
O8       O      0.247860000000     0.367880000000     0.682280000000    -0.235329   
O9       O      0.178520000000     0.142330000000     0.629790000000    -0.224742   
O10      O      0.086540000000     0.095010000000     0.666740000000    -0.226952   
O11      O      0.178870000000     0.070670000000     0.627440000000    -0.224607   
O12      O      0.128610000000     0.096530000000     0.572460000000    -0.234624   
O13      O      0.085690000000     0.117560000000     0.592340000000    -0.226112   
O14      O      0.132440000000     0.047540000000     0.630210000000    -0.232835   
O15      O      0.132010000000     0.165020000000     0.625360000000    -0.232847   
O16      O      0.130020000000     0.115470000000     0.685900000000    -0.235025   
O17      O      0.354360000000     0.244320000000     0.377840000000    -0.224815   
O18      O      0.308050000000     0.337500000000     0.415290000000    -0.226916   
O19      O      0.282320000000     0.244330000000     0.380470000000    -0.224871   
O20      O      0.308290000000     0.293300000000     0.321990000000    -0.234538   
O21      O      0.328760000000     0.336770000000     0.341230000000    -0.22661    
O22      O      0.259480000000     0.290970000000     0.381020000000    -0.232641   
O23      O      0.377160000000     0.290960000000     0.376000000000    -0.232625   
O24      O      0.328630000000     0.294500000000     0.435390000000    -0.234458   
O25      O      0.104360000000     0.217260000000     0.379890000000    -0.224897   
O26      O      0.057650000000     0.124070000000     0.342550000000    -0.226659   
O27      O      0.032300000000     0.217330000000     0.377140000000    -0.224863   
O28      O      0.058200000000     0.168460000000     0.435720000000    -0.234487   
O29      O      0.078350000000     0.124840000000     0.416470000000    -0.226689   
O30      O      0.009450000000     0.170690000000     0.376800000000    -0.232588   
O31      O      0.127140000000     0.170620000000     0.381500000000    -0.232586   
O32      O      0.078170000000     0.167030000000     0.322300000000    -0.234592   
O33      O      0.282580000000     0.467840000000     0.883660000000    -0.222683   
O34      O      0.327560000000     0.373680000000     0.915500000000    -0.226511   
O35      O      0.355510000000     0.468120000000     0.885030000000    -0.226407   
O36      O      0.310860000000     0.428020000000     0.824760000000    -0.235824   
O37      O      0.317500000000     0.378430000000     0.838690000000    -0.224541   
O38      O      0.377840000000     0.421980000000     0.877280000000    -0.234774   
O39      O      0.260100000000     0.420880000000     0.881820000000    -0.232328   
O40      O      0.309720000000     0.417280000000     0.936960000000    -0.234124   
O41      O      0.104860000000     0.994720000000     0.880830000000    -0.224618   
O42      O      0.058060000000     0.087640000000     0.917210000000    -0.226369   
O43      O      0.033240000000     0.994980000000     0.879500000000    -0.22451    
O44      O      0.059570000000     0.044030000000     0.823430000000    -0.234816   
O45      O      0.080300000000     0.087320000000     0.842770000000    -0.226884   
O46      O      0.010530000000     0.041490000000     0.884060000000    -0.232854   
O47      O      0.127930000000     0.041250000000     0.879170000000    -0.232962   
O48      O      0.078860000000     0.044480000000     0.936830000000    -0.234692   
O49      O      0.456320000000     0.139420000000     0.131400000000    -0.224748   
O50      O      0.049220000000     0.093420000000     0.093030000000    -0.226639   
O51      O      0.456490000000     0.067410000000     0.128570000000    -0.224952   
O52      O      0.006030000000     0.093880000000     0.186890000000    -0.234589   
O53      O      0.049270000000     0.114100000000     0.166930000000    -0.226759   
O54      O      0.003110000000     0.044600000000     0.127460000000    -0.23262    
O55      O      0.002910000000     0.162340000000     0.132250000000    -0.232691   
O56      O      0.005950000000     0.113980000000     0.073480000000    -0.234545   
O57      O      0.429220000000     0.317400000000     0.129720000000    -0.224943   
O58      O      0.336410000000     0.363460000000     0.091270000000    -0.226884   
O59      O      0.429280000000     0.389410000000     0.127030000000    -0.224672   
O60      O      0.379670000000     0.363850000000     0.184880000000    -0.23454    
O61      O      0.336500000000     0.343020000000     0.165370000000    -0.226493   
O62      O      0.382690000000     0.412310000000     0.125930000000    -0.232477   
O63      O      0.382600000000     0.294590000000     0.131140000000    -0.232696   
O64      O      0.379790000000     0.343400000000     0.071480000000    -0.234502   
O65      O      0.205480000000     0.820100000000     0.623600000000    -0.22664    
O66      O      0.296410000000     0.856820000000     0.667600000000    -0.224193   
O67      O      0.205860000000     0.892880000000     0.624700000000    -0.222201   
O68      O      0.255290000000     0.864900000000     0.570080000000    -0.23416    
O69      O      0.299560000000     0.848240000000     0.591060000000    -0.226566   
O70      O      0.252810000000     0.915450000000     0.624370000000    -0.232321   
O71      O      0.251570000000     0.797760000000     0.631300000000    -0.235101   
O72      O      0.247860000000     0.867880000000     0.682280000000    -0.235317   
O73      O      0.178520000000     0.642330000000     0.629790000000    -0.22474    
O74      O      0.086540000000     0.595010000000     0.666740000000    -0.226952   
O75      O      0.178870000000     0.570670000000     0.627440000000    -0.224616   
O76      O      0.128610000000     0.596530000000     0.572460000000    -0.234624   
O77      O      0.085690000000     0.617560000000     0.592340000000    -0.226112   
O78      O      0.132440000000     0.547530000000     0.630210000000    -0.232831   
O79      O      0.132010000000     0.665020000000     0.625360000000    -0.232846   
O80      O      0.130020000000     0.615470000000     0.685900000000    -0.235025   
O81      O      0.354360000000     0.744320000000     0.377850000000    -0.224805   
O82      O      0.308050000000     0.837500000000     0.415290000000    -0.226914   
O83      O      0.282320000000     0.744330000000     0.380470000000    -0.224871   
O84      O      0.308300000000     0.793300000000     0.321990000000    -0.234596   
O85      O      0.328760000000     0.836770000000     0.341230000000    -0.226633   
O86      O      0.259480000000     0.790970000000     0.381030000000    -0.232644   
O87      O      0.377160000000     0.790960000000     0.376000000000    -0.232619   
O88      O      0.328630000000     0.794500000000     0.435390000000    -0.234449   
O89      O      0.104360000000     0.717260000000     0.379890000000    -0.224918   
O90      O      0.057650000000     0.624070000000     0.342550000000    -0.226648   
O91      O      0.032300000000     0.717330000000     0.377140000000    -0.224847   
O92      O      0.058200000000     0.668460000000     0.435720000000    -0.234482   
O93      O      0.078350000000     0.624840000000     0.416470000000    -0.226691   
O94      O      0.009450000000     0.670690000000     0.376800000000    -0.23256    
O95      O      0.127140000000     0.670620000000     0.381500000000    -0.232616   
O96      O      0.078170000000     0.667030000000     0.322300000000    -0.234594   
O97      O      0.282580000000     0.967840000000     0.883660000000    -0.222679   
O98      O      0.327560000000     0.873680000000     0.915500000000    -0.226495   
O99      O      0.355510000000     0.968120000000     0.885030000000    -0.226391   
O100     O      0.310860000000     0.928020000000     0.824760000000    -0.235829   
O101     O      0.317500000000     0.878430000000     0.838690000000    -0.224562   
O102     O      0.377830000000     0.921980000000     0.877280000000    -0.234771   
O103     O      0.260100000000     0.920880000000     0.881820000000    -0.232323   
O104     O      0.309710000000     0.917280000000     0.936960000000    -0.234083   
O105     O      0.104860000000     0.494730000000     0.880830000000    -0.224738   
O106     O      0.058060000000     0.587640000000     0.917210000000    -0.226364   
O107     O      0.033240000000     0.494980000000     0.879500000000    -0.224531   
O108     O      0.059570000000     0.544030000000     0.823430000000    -0.234782   
O109     O      0.080300000000     0.587320000000     0.842770000000    -0.226908   
O110     O      0.010530000000     0.541490000000     0.884060000000    -0.23286    
O111     O      0.127930000000     0.541250000000     0.879170000000    -0.2329     
O112     O      0.078860000000     0.544480000000     0.936830000000    -0.234681   
O113     O      0.456320000000     0.639420000000     0.131400000000    -0.224747   
O114     O      0.049220000000     0.593420000000     0.093030000000    -0.226644   
O115     O      0.456480000000     0.567420000000     0.128570000000    -0.22478    
O116     O      0.006030000000     0.593880000000     0.186890000000    -0.234587   
O117     O      0.049270000000     0.614100000000     0.166930000000    -0.22676    
O118     O      0.003110000000     0.544600000000     0.127460000000    -0.232544   
O119     O      0.002910000000     0.662340000000     0.132250000000    -0.232694   
O120     O      0.005950000000     0.613980000000     0.073480000000    -0.234549   
O121     O      0.429220000000     0.817400000000     0.129720000000    -0.224942   
O122     O      0.336410000000     0.863460000000     0.091270000000    -0.226884   
O123     O      0.429280000000     0.889410000000     0.127030000000    -0.224669   
O124     O      0.379670000000     0.863850000000     0.184880000000    -0.234551   
O125     O      0.336510000000     0.843020000000     0.165370000000    -0.226553   
O126     O      0.382690000000     0.912310000000     0.125930000000    -0.232474   
O127     O      0.382600000000     0.794590000000     0.131140000000    -0.232692   
O128     O      0.379790000000     0.843400000000     0.071480000000    -0.234501   
O129     O      0.705480000000     0.320100000000     0.623600000000    -0.226637   
O130     O      0.796410000000     0.356820000000     0.667600000000    -0.2242     
O131     O      0.705860000000     0.392880000000     0.624700000000    -0.222307   
O132     O      0.755290000000     0.364900000000     0.570080000000    -0.234161   
O133     O      0.799560000000     0.348240000000     0.591060000000    -0.226566   
O134     O      0.752810000000     0.415450000000     0.624370000000    -0.232374   
O135     O      0.751570000000     0.297760000000     0.631300000000    -0.235101   
O136     O      0.747860000000     0.367880000000     0.682280000000    -0.235325   
O137     O      0.678520000000     0.142330000000     0.629790000000    -0.224721   
O138     O      0.586540000000     0.095010000000     0.666740000000    -0.226928   
O139     O      0.678870000000     0.070670000000     0.627440000000    -0.224581   
O140     O      0.628610000000     0.096530000000     0.572460000000    -0.234645   
O141     O      0.585700000000     0.117560000000     0.592340000000    -0.226207   
O142     O      0.632440000000     0.047540000000     0.630210000000    -0.232832   
O143     O      0.632010000000     0.165020000000     0.625360000000    -0.232847   
O144     O      0.630030000000     0.115470000000     0.685900000000    -0.23491    
O145     O      0.854350000000     0.244320000000     0.377840000000    -0.224718   
O146     O      0.808050000000     0.337500000000     0.415290000000    -0.226925   
O147     O      0.782320000000     0.244330000000     0.380470000000    -0.224769   
O148     O      0.808300000000     0.293300000000     0.321990000000    -0.234583   
O149     O      0.828760000000     0.336770000000     0.341230000000    -0.226628   
O150     O      0.759480000000     0.290970000000     0.381020000000    -0.232598   
O151     O      0.877160000000     0.290960000000     0.376000000000    -0.232581   
O152     O      0.828630000000     0.294500000000     0.435390000000    -0.234462   
O153     O      0.604360000000     0.217260000000     0.379890000000    -0.224898   
O154     O      0.557650000000     0.124070000000     0.342550000000    -0.226654   
O155     O      0.532300000000     0.217330000000     0.377140000000    -0.224866   
O156     O      0.558200000000     0.168460000000     0.435720000000    -0.234487   
O157     O      0.578350000000     0.124840000000     0.416470000000    -0.226688   
O158     O      0.509450000000     0.170690000000     0.376800000000    -0.232589   
O159     O      0.627140000000     0.170620000000     0.381500000000    -0.232585   
O160     O      0.578170000000     0.167030000000     0.322300000000    -0.23459    
O161     O      0.782580000000     0.467840000000     0.883660000000    -0.222683   
O162     O      0.827560000000     0.373680000000     0.915500000000    -0.226497   
O163     O      0.855510000000     0.468120000000     0.885030000000    -0.226408   
O164     O      0.810860000000     0.428020000000     0.824760000000    -0.23582    
O165     O      0.817510000000     0.378430000000     0.838690000000    -0.224539   
O166     O      0.877840000000     0.421980000000     0.877280000000    -0.234772   
O167     O      0.760100000000     0.420880000000     0.881820000000    -0.232328   
O168     O      0.809710000000     0.417280000000     0.936960000000    -0.234085   
O169     O      0.604860000000     0.994720000000     0.880830000000    -0.22462    
O170     O      0.558050000000     0.087640000000     0.917210000000    -0.226329   
O171     O      0.533230000000     0.994980000000     0.879500000000    -0.224601   
O172     O      0.559570000000     0.044030000000     0.823430000000    -0.234858   
O173     O      0.580300000000     0.087320000000     0.842760000000    -0.226982   
O174     O      0.510530000000     0.041490000000     0.884060000000    -0.23289    
O175     O      0.627930000000     0.041250000000     0.879170000000    -0.232965   
O176     O      0.578860000000     0.044480000000     0.936830000000    -0.234678   
O177     O      0.956320000000     0.139420000000     0.131400000000    -0.224746   
O178     O      0.549220000000     0.093420000000     0.093030000000    -0.226643   
O179     O      0.956480000000     0.067410000000     0.128570000000    -0.224982   
O180     O      0.506030000000     0.093880000000     0.186890000000    -0.23459    
O181     O      0.549270000000     0.114100000000     0.166930000000    -0.226761   
O182     O      0.503110000000     0.044600000000     0.127460000000    -0.232601   
O183     O      0.502910000000     0.162340000000     0.132250000000    -0.232701   
O184     O      0.505950000000     0.113980000000     0.073480000000    -0.23455    
O185     O      0.929220000000     0.317400000000     0.129720000000    -0.224944   
O186     O      0.836410000000     0.363460000000     0.091270000000    -0.226885   
O187     O      0.929280000000     0.389410000000     0.127030000000    -0.224672   
O188     O      0.879670000000     0.363850000000     0.184880000000    -0.234553   
O189     O      0.836510000000     0.343020000000     0.165370000000    -0.226554   
O190     O      0.882690000000     0.412310000000     0.125930000000    -0.232477   
O191     O      0.882600000000     0.294590000000     0.131140000000    -0.232693   
O192     O      0.879790000000     0.343400000000     0.071480000000    -0.234503   
O193     O      0.705480000000     0.820100000000     0.623600000000    -0.226641   
O194     O      0.796410000000     0.856820000000     0.667600000000    -0.2242     
O195     O      0.705860000000     0.892880000000     0.624700000000    -0.222207   
O196     O      0.755290000000     0.864900000000     0.570080000000    -0.234163   
O197     O      0.799560000000     0.848240000000     0.591060000000    -0.226568   
O198     O      0.752810000000     0.915450000000     0.624370000000    -0.232326   
O199     O      0.751570000000     0.797760000000     0.631300000000    -0.235102   
O200     O      0.747860000000     0.867880000000     0.682280000000    -0.235326   
O201     O      0.678520000000     0.642330000000     0.629790000000    -0.22474    
O202     O      0.586540000000     0.595010000000     0.666740000000    -0.226907   
O203     O      0.678870000000     0.570670000000     0.627440000000    -0.2246     
O204     O      0.628610000000     0.596530000000     0.572460000000    -0.234642   
O205     O      0.585700000000     0.617560000000     0.592340000000    -0.226183   
O206     O      0.632440000000     0.547540000000     0.630210000000    -0.232826   
O207     O      0.632010000000     0.665020000000     0.625360000000    -0.232845   
O208     O      0.630030000000     0.615470000000     0.685900000000    -0.23491    
O209     O      0.854360000000     0.744320000000     0.377840000000    -0.224817   
O210     O      0.808050000000     0.837500000000     0.415290000000    -0.226916   
O211     O      0.782320000000     0.744330000000     0.380470000000    -0.22476    
O212     O      0.808300000000     0.793300000000     0.321990000000    -0.234579   
O213     O      0.828760000000     0.836770000000     0.341230000000    -0.226623   
O214     O      0.759490000000     0.790970000000     0.381020000000    -0.232596   
O215     O      0.877160000000     0.790960000000     0.376000000000    -0.232624   
O216     O      0.828630000000     0.794500000000     0.435390000000    -0.234458   
O217     O      0.604360000000     0.717260000000     0.379890000000    -0.224893   
O218     O      0.557650000000     0.624070000000     0.342550000000    -0.226652   
O219     O      0.532300000000     0.717330000000     0.377140000000    -0.224866   
O220     O      0.558200000000     0.668460000000     0.435720000000    -0.234486   
O221     O      0.578350000000     0.624840000000     0.416470000000    -0.226686   
O222     O      0.509450000000     0.670690000000     0.376800000000    -0.232588   
O223     O      0.627140000000     0.670620000000     0.381500000000    -0.232583   
O224     O      0.578170000000     0.667030000000     0.322300000000    -0.234588   
O225     O      0.782580000000     0.967840000000     0.883660000000    -0.222679   
O226     O      0.827560000000     0.873680000000     0.915500000000    -0.226511   
O227     O      0.855510000000     0.968120000000     0.885030000000    -0.226398   
O228     O      0.810860000000     0.928020000000     0.824760000000    -0.235826   
O229     O      0.817500000000     0.878430000000     0.838690000000    -0.22456    
O230     O      0.877840000000     0.921980000000     0.877280000000    -0.234773   
O231     O      0.760100000000     0.920880000000     0.881820000000    -0.232326   
O232     O      0.809720000000     0.917280000000     0.936960000000    -0.234123   
O233     O      0.604860000000     0.494720000000     0.880830000000    -0.224666   
O234     O      0.558060000000     0.587640000000     0.917210000000    -0.226369   
O235     O      0.533240000000     0.494980000000     0.879500000000    -0.22453    
O236     O      0.559570000000     0.544030000000     0.823430000000    -0.234855   
O237     O      0.580300000000     0.587320000000     0.842760000000    -0.226983   
O238     O      0.510530000000     0.541490000000     0.884060000000    -0.232861   
O239     O      0.627930000000     0.541250000000     0.879170000000    -0.232878   
O240     O      0.578860000000     0.544480000000     0.936830000000    -0.234684   
O241     O      0.956320000000     0.639420000000     0.131400000000    -0.224748   
O242     O      0.549220000000     0.593420000000     0.093030000000    -0.226645   
O243     O      0.956490000000     0.567420000000     0.128570000000    -0.224852   
O244     O      0.506030000000     0.593880000000     0.186890000000    -0.234593   
O245     O      0.549270000000     0.614100000000     0.166930000000    -0.226761   
O246     O      0.503110000000     0.544600000000     0.127460000000    -0.232534   
O247     O      0.502910000000     0.662340000000     0.132250000000    -0.2327     
O248     O      0.505950000000     0.613980000000     0.073480000000    -0.234553   
O249     O      0.929220000000     0.817400000000     0.129720000000    -0.22494    
O250     O      0.836410000000     0.863460000000     0.091270000000    -0.226882   
O251     O      0.929280000000     0.889410000000     0.127030000000    -0.224672   
O252     O      0.879660000000     0.863850000000     0.184880000000    -0.234668   
O253     O      0.836510000000     0.843020000000     0.165370000000    -0.226599   
O254     O      0.882690000000     0.912310000000     0.125930000000    -0.232473   
O255     O      0.882600000000     0.794590000000     0.131140000000    -0.232688   
O256     O      0.879790000000     0.843400000000     0.071480000000    -0.234501   


