data_structure

_audit_creation_method RASPA-1.0
_audit_creation_date 2023-5-22
_audit_author_name 'Poobodin Mano'

_cell_length_a    50.2263
_cell_length_b    50.2274
_cell_length_c    50.2309
_cell_angle_alpha 89.9999
_cell_angle_beta  89.9999
_cell_angle_gamma 90.0001
_cell_volume      126719

_symmetry_cell_setting          triclinic
_symmetry_space_group_name_Hall 'P 1'
_symmetry_space_group_name_H-M  'P 1'
_symmetry_Int_Tables_number     1

_symmetry_equiv_pos_as_xyz 'x,y,z'

loop_
_atom_site_label
_atom_site_type_symbol
_atom_site_fract_x
_atom_site_fract_y
_atom_site_fract_z
_atom_site_charge
C1       C      0.112160000000     0.261540000000     0.894950000000     0.281535   
C2       C      0.116390000000     0.333320000000     0.966700000000     0.281613   
C3       C      0.165600000000     0.335000000000     0.894540000000     0.283228   
C4       C      0.063010000000     0.333740000000     0.893240000000     0.283123   
C5       C      0.205740000000     0.372960000000     0.123010000000     0.281407   
C6       C      0.133970000000     0.444730000000     0.127260000000     0.281403   
C7       C      0.133560000000     0.371270000000     0.073840000000     0.283184   
C8       C      0.132290000000     0.372530000000     0.176430000000     0.283177   
C9       C      0.116310000000     0.833350000000     0.033600000000     0.281387   
C10      C      0.112050000000     0.761600000000     0.105380000000     0.281537   
C11      C      0.165480000000     0.835050000000     0.105790000000     0.283178   
C12      C      0.062880000000     0.833810000000     0.107040000000     0.283192   
C13      C      0.022630000000     0.605310000000     0.144960000000     0.281652   
C14      C      0.094400000000     0.601040000000     0.216730000000     0.281615   
C15      C      0.096060000000     0.551870000000     0.144550000000     0.283216   
C16      C      0.094800000000     0.654460000000     0.143290000000     0.283263   
C17      C      0.094410000000     0.355260000000     0.283570000000     0.281544   
C18      C      0.022660000000     0.351030000000     0.355330000000     0.281488   
C19      C      0.094840000000     0.301840000000     0.357040000000     0.283104   
C20      C      0.096130000000     0.404440000000     0.355750000000     0.282966   
C21      C      0.366300000000     0.261590000000     0.105380000000     0.281367   
C22      C      0.362090000000     0.333350000000     0.033610000000     0.28156    
C23      C      0.312880000000     0.335050000000     0.105780000000     0.283192   
C24      C      0.415470000000     0.333790000000     0.107070000000     0.28315    
C25      C      0.866330000000     0.694810000000     0.105300000000     0.281518   
C26      C      0.862130000000     0.623040000000     0.033540000000     0.281677   
C27      C      0.915500000000     0.622620000000     0.107010000000     0.283151   
C28      C      0.812920000000     0.621360000000     0.105700000000     0.283315   
C29      C      0.705750000000     0.083450000000     0.877280000000     0.281596   
C30      C      0.633980000000     0.011680000000     0.873030000000     0.281809   
C31      C      0.633540000000     0.085140000000     0.926440000000     0.282909   
C32      C      0.632310000000     0.083850000000     0.823840000000     0.283149   
C33      C      0.522670000000     0.105270000000     0.644930000000     0.28148    
C34      C      0.594430000000     0.101050000000     0.716690000000     0.281676   
C35      C      0.596140000000     0.051850000000     0.644530000000     0.283288   
C36      C      0.594870000000     0.154440000000     0.643220000000     0.283215   
C37      C      0.366360000000     0.194700000000     0.605380000000     0.281672   
C38      C      0.362090000000     0.122950000000     0.533610000000     0.281605   
C39      C      0.415520000000     0.122510000000     0.607040000000     0.283274   
C40      C      0.312920000000     0.121260000000     0.605790000000     0.283309   
C41      C      0.094450000000     0.855230000000     0.716730000000     0.281582   
C42      C      0.022690000000     0.850990000000     0.644950000000     0.281335   
C43      C      0.096130000000     0.904430000000     0.644560000000     0.283205   
C44      C      0.094900000000     0.801830000000     0.643270000000     0.283116   
C45      C      0.634060000000     0.944700000000     0.627290000000     0.281576   
C46      C      0.705820000000     0.872940000000     0.623040000000     0.281557   
C47      C      0.632360000000     0.872530000000     0.676470000000     0.283186   
C48      C      0.633630000000     0.871250000000     0.573890000000     0.283116   
C49      C      0.522650000000     0.851080000000     0.855380000000     0.281748   
C50      C      0.594420000000     0.855340000000     0.783610000000     0.281699   
C51      C      0.596080000000     0.904540000000     0.855780000000     0.283082   
C52      C      0.594850000000     0.801940000000     0.857040000000     0.28317    
C53      C      0.955740000000     0.851120000000     0.144930000000     0.281702   
C54      C      0.883970000000     0.855360000000     0.216680000000     0.281567   
C55      C      0.882280000000     0.904550000000     0.144500000000     0.283166   
C56      C      0.883550000000     0.801950000000     0.143220000000     0.282994   
C57      C      0.522670000000     0.605310000000     0.355330000000     0.281561   
C58      C      0.594430000000     0.601100000000     0.283550000000     0.28139    
C59      C      0.594840000000     0.654490000000     0.357020000000     0.283332   
C60      C      0.596120000000     0.551900000000     0.355730000000     0.283216   
C61      C      0.634020000000     0.444760000000     0.373010000000     0.281426   
C62      C      0.705780000000     0.372990000000     0.377240000000     0.281589   
C63      C      0.633610000000     0.371290000000     0.426420000000     0.283231   
C64      C      0.632320000000     0.372580000000     0.323840000000     0.283144   
C65      C      0.705780000000     0.583440000000     0.122990000000     0.281629   
C66      C      0.634000000000     0.511680000000     0.127250000000     0.281543   
C67      C      0.632330000000     0.583860000000     0.176410000000     0.283117   
C68      C      0.633610000000     0.585120000000     0.073820000000     0.283259   
C69      C      0.522610000000     0.351120000000     0.144960000000     0.28175    
C70      C      0.594390000000     0.355360000000     0.216710000000     0.281353   
C71      C      0.594790000000     0.301950000000     0.143250000000     0.282982   
C72      C      0.596070000000     0.404550000000     0.144530000000     0.283231   
C73      C      0.844400000000     0.944730000000     0.373010000000     0.281579   
C74      C      0.772640000000     0.872970000000     0.377270000000     0.281608   
C75      C      0.846080000000     0.872560000000     0.323830000000     0.283121   
C76      C      0.844840000000     0.871270000000     0.426420000000     0.2833     
C77      C      0.383990000000     0.855280000000     0.283620000000     0.281571   
C78      C      0.455760000000     0.851050000000     0.355380000000     0.281608   
C79      C      0.382300000000     0.904460000000     0.355800000000     0.283129   
C80      C      0.383580000000     0.801860000000     0.357070000000     0.28337    
C81      C      0.616330000000     0.833370000000     0.466750000000     0.281492   
C82      C      0.612080000000     0.761620000000     0.394970000000     0.281564   
C83      C      0.562900000000     0.833800000000     0.393300000000     0.283227   
C84      C      0.665500000000     0.835070000000     0.394570000000     0.283045   
C85      C      0.384120000000     0.355240000000     0.716740000000     0.281496   
C86      C      0.455890000000     0.350990000000     0.644970000000     0.281546   
C87      C      0.383690000000     0.301830000000     0.643290000000     0.28325    
C88      C      0.382440000000     0.404430000000     0.644570000000     0.283002   
C89      C      0.612180000000     0.261570000000     0.605310000000     0.281533   
C90      C      0.616410000000     0.333350000000     0.533550000000     0.281404   
C91      C      0.563020000000     0.333740000000     0.607020000000     0.283229   
C92      C      0.665610000000     0.335020000000     0.605720000000     0.28312    
C93      C      0.112210000000     0.694710000000     0.605350000000     0.281518   
C94      C      0.116450000000     0.622940000000     0.533580000000     0.281791   
C95      C      0.165640000000     0.621250000000     0.605760000000     0.283196   
C96      C      0.063040000000     0.622520000000     0.607020000000     0.283263   
C97      C      0.205810000000     0.583340000000     0.377260000000     0.28164    
C98      C      0.134050000000     0.511570000000     0.373020000000     0.281491   
C99      C      0.133640000000     0.585030000000     0.426440000000     0.283222   
C100     C      0.132340000000     0.583760000000     0.323850000000     0.28306    
C101     C      0.362150000000     0.622950000000     0.466740000000     0.281597   
C102     C      0.366350000000     0.694720000000     0.394980000000     0.281546   
C103     C      0.415540000000     0.622550000000     0.393270000000     0.283074   
C104     C      0.312940000000     0.621260000000     0.394560000000     0.283084   
C105     C      0.272780000000     0.583340000000     0.623040000000     0.281723   
C106     C      0.344540000000     0.511570000000     0.627300000000     0.281564   
C107     C      0.344960000000     0.585020000000     0.573880000000     0.283109   
C108     C      0.346220000000     0.583760000000     0.676470000000     0.28318    
C109     C      0.205780000000     0.872900000000     0.877310000000     0.281524   
C110     C      0.134010000000     0.944670000000     0.873040000000     0.281467   
C111     C      0.132340000000     0.872480000000     0.823870000000     0.283201   
C112     C      0.133580000000     0.871230000000     0.926460000000     0.28323    
C113     C      0.272740000000     0.372920000000     0.877280000000     0.281591   
C114     C      0.344510000000     0.444700000000     0.873040000000     0.281276   
C115     C      0.344910000000     0.371250000000     0.926460000000     0.283196   
C116     C      0.346200000000     0.372500000000     0.823870000000     0.283107   
C117     C      0.366370000000     0.761560000000     0.895000000000     0.281511   
C118     C      0.362110000000     0.833320000000     0.966770000000     0.281581   
C119     C      0.415520000000     0.833760000000     0.893310000000     0.283241   
C120     C      0.312930000000     0.835000000000     0.894590000000     0.283167   
C121     C      0.384120000000     0.601020000000     0.783610000000     0.281543   
C122     C      0.455880000000     0.605280000000     0.855360000000     0.281523   
C123     C      0.383670000000     0.654430000000     0.857070000000     0.283042   
C124     C      0.382420000000     0.551840000000     0.855780000000     0.283234   
C125     C      0.866350000000     0.194790000000     0.894930000000     0.281724   
C126     C      0.862070000000     0.123040000000     0.966700000000     0.281549   
C127     C      0.812900000000     0.121350000000     0.894520000000     0.283065   
C128     C      0.915500000000     0.122580000000     0.893260000000     0.283343   
C129     C      0.612180000000     0.694800000000     0.894920000000     0.281519   
C130     C      0.616430000000     0.623030000000     0.966680000000     0.281572   
C131     C      0.563020000000     0.622600000000     0.893230000000     0.28308    
C132     C      0.665620000000     0.621340000000     0.894500000000     0.283087   
C133     C      0.866390000000     0.761580000000     0.605300000000     0.281506   
C134     C      0.862130000000     0.833350000000     0.533540000000     0.281342   
C135     C      0.812960000000     0.835030000000     0.605730000000     0.283016   
C136     C      0.915560000000     0.833760000000     0.607000000000     0.283024   
C137     C      0.884130000000     0.601050000000     0.716670000000     0.281622   
C138     C      0.955900000000     0.605270000000     0.644920000000     0.281722   
C139     C      0.882430000000     0.551850000000     0.644500000000     0.283126   
C140     C      0.883700000000     0.654440000000     0.643210000000     0.283251   
C141     C      0.844520000000     0.511650000000     0.872990000000     0.281437   
C142     C      0.772760000000     0.583430000000     0.877230000000     0.281515   
C143     C      0.844930000000     0.585110000000     0.926400000000     0.283299   
C144     C      0.846210000000     0.583830000000     0.823810000000     0.283316   
C145     C      0.955880000000     0.351060000000     0.855320000000     0.281572   
C146     C      0.884120000000     0.355310000000     0.783560000000     0.281729   
C147     C      0.883680000000     0.301920000000     0.857010000000     0.283308   
C148     C      0.882430000000     0.404510000000     0.855720000000     0.283139   
C149     C      0.866330000000     0.261610000000     0.394910000000     0.281626   
C150     C      0.862120000000     0.333360000000     0.466680000000     0.281553   
C151     C      0.915510000000     0.333780000000     0.393230000000     0.283128   
C152     C      0.812920000000     0.335070000000     0.394510000000     0.283264   
C153     C      0.772750000000     0.372940000000     0.623000000000     0.281531   
C154     C      0.844510000000     0.444720000000     0.627240000000     0.281453   
C155     C      0.846200000000     0.372540000000     0.676420000000     0.283157   
C156     C      0.844920000000     0.371270000000     0.573830000000     0.283216   
C157     C      0.272630000000     0.872950000000     0.123060000000     0.281411   
C158     C      0.344390000000     0.944710000000     0.127310000000     0.281563   
C159     C      0.346080000000     0.872520000000     0.176480000000     0.28314    
C160     C      0.344820000000     0.871240000000     0.073890000000     0.283143   
C161     C      0.955750000000     0.105290000000     0.355340000000     0.281581   
C162     C      0.883980000000     0.101070000000     0.283560000000     0.281492   
C163     C      0.882310000000     0.051870000000     0.355730000000     0.283343   
C164     C      0.883570000000     0.154470000000     0.357000000000     0.283221   
C165     C      0.022640000000     0.105260000000     0.855370000000     0.281487   
C166     C      0.094410000000     0.100990000000     0.783610000000     0.281409   
C167     C      0.094850000000     0.154400000000     0.857060000000     0.283342   
C168     C      0.096090000000     0.051810000000     0.855790000000     0.283249   
C169     C      0.112060000000     0.194710000000     0.394990000000     0.281728   
C170     C      0.116290000000     0.122950000000     0.466760000000     0.281555   
C171     C      0.062880000000     0.122540000000     0.393300000000     0.283101   
C172     C      0.165470000000     0.121260000000     0.394590000000     0.283188   
C173     C      0.134020000000     0.011580000000     0.627300000000     0.281572   
C174     C      0.205780000000     0.083350000000     0.623050000000     0.281412   
C175     C      0.133570000000     0.085040000000     0.573890000000     0.28312    
C176     C      0.132320000000     0.083760000000     0.676480000000     0.283152   
C177     C      0.844360000000     0.011690000000     0.127250000000     0.281564   
C178     C      0.772590000000     0.083450000000     0.123000000000     0.281571   
C179     C      0.846050000000     0.083860000000     0.176420000000     0.283234   
C180     C      0.844780000000     0.085140000000     0.073840000000     0.283039   
C181     C      0.612020000000     0.194810000000     0.105330000000     0.281515   
C182     C      0.616260000000     0.123050000000     0.033560000000     0.281568   
C183     C      0.665440000000     0.121360000000     0.105740000000     0.283058   
C184     C      0.562850000000     0.122620000000     0.107030000000     0.283199   
C185     C      0.344380000000     0.011600000000     0.373060000000     0.2816     
C186     C      0.272620000000     0.083360000000     0.377320000000     0.281583   
C187     C      0.344810000000     0.085050000000     0.426470000000     0.28312    
C188     C      0.346070000000     0.083780000000     0.323890000000     0.283125   
C189     C      0.455730000000     0.105300000000     0.144970000000     0.281573   
C190     C      0.383970000000     0.101040000000     0.216750000000     0.281641   
C191     C      0.383540000000     0.154450000000     0.143300000000     0.283319   
C192     C      0.382290000000     0.051850000000     0.144570000000     0.283331   
C193     C      0.382710000000     0.096310000000     0.292210000000    -0.00621334 
C194     C      0.355730000000     0.090520000000     0.296910000000    -0.0527687  
C195     C      0.338080000000     0.089610000000     0.275250000000    -0.00628343 
C196     C      0.347250000000     0.093710000000     0.249380000000    -0.00718937 
C197     C      0.374360000000     0.098610000000     0.244480000000    -0.0517501  
C198     C      0.391980000000     0.100210000000     0.266180000000    -0.00692141 
C199     C      0.514210000000     0.116780000000     0.099060000000    -0.00633865 
C200     C      0.535880000000     0.115870000000     0.116700000000    -0.0527837  
C201     C      0.531190000000     0.110060000000     0.143680000000    -0.00628042 
C202     C      0.505160000000     0.106140000000     0.152950000000    -0.00682068 
C203     C      0.483460000000     0.107740000000     0.135350000000    -0.0517901  
C204     C      0.488340000000     0.112660000000     0.108250000000    -0.00714264 
C205     C      0.739960000000     0.120170000000     0.115660000000    -0.00720494 
C206     C      0.744850000000     0.093070000000     0.120580000000    -0.0516458  
C207     C      0.723150000000     0.075450000000     0.122180000000    -0.00699442 
C208     C      0.697130000000     0.084720000000     0.118270000000    -0.0061506  
C209     C      0.692420000000     0.111700000000     0.112480000000    -0.0527702  
C210     C      0.714090000000     0.129350000000     0.111560000000    -0.00632954 
C211     C      0.123610000000     0.086230000000     0.499390000000    -0.00719788 
C212     C      0.118710000000     0.113330000000     0.494500000000    -0.0516716  
C213     C      0.117120000000     0.130950000000     0.516190000000    -0.0068903  
C214     C      0.121040000000     0.121690000000     0.542220000000    -0.00626239 
C215     C      0.126830000000     0.094700000000     0.546920000000    -0.0528036  
C216     C      0.127720000000     0.077050000000     0.525260000000    -0.0063191  
C217     C      0.214110000000     0.129250000000     0.388770000000    -0.00629271 
C218     C      0.192450000000     0.111600000000     0.387850000000    -0.0528268  
C219     C      0.197160000000     0.084620000000     0.382050000000    -0.00613577 
C220     C      0.223180000000     0.075350000000     0.378140000000    -0.00698806 
C221     C      0.244880000000     0.092970000000     0.379750000000    -0.0516597  
C222     C      0.239990000000     0.120070000000     0.384670000000    -0.00722325 
C223     C      0.086410000000     0.100180000000     0.734190000000    -0.00687896 
C224     C      0.104020000000     0.098570000000     0.755880000000    -0.0517082  
C225     C      0.131130000000     0.093670000000     0.750990000000    -0.00726057 
C226     C      0.140300000000     0.089570000000     0.725120000000    -0.00624293 
C227     C      0.122650000000     0.090490000000     0.703450000000    -0.0528463  
C228     C      0.095670000000     0.096280000000     0.708160000000    -0.00622529 
C229     C      0.891980000000     0.100270000000     0.234130000000    -0.00698301 
C230     C      0.874360000000     0.098660000000     0.255820000000    -0.0516227  
C231     C      0.847260000000     0.093760000000     0.250940000000    -0.00719562 
C232     C      0.838070000000     0.089670000000     0.225060000000    -0.00634613 
C233     C      0.855720000000     0.090590000000     0.203400000000    -0.0527765  
C234     C      0.882700000000     0.096380000000     0.208100000000    -0.00621287 
C235     C      0.988360000000     0.112630000000     0.392070000000    -0.00714335 
C236     C      0.983480000000     0.107710000000     0.364970000000    -0.0516788  
C237     C      0.005190000000     0.106090000000     0.347360000000    -0.0069703  
C238     C      0.031210000000     0.110000000000     0.356640000000    -0.00625925 
C239     C      0.035900000000     0.115800000000     0.383620000000    -0.052686   
C240     C      0.014230000000     0.116730000000     0.401260000000    -0.00640837 
C241     C      0.336380000000     0.994140000000     0.128130000000    -0.00705119 
C242     C      0.354010000000     0.972440000000     0.129740000000    -0.0516866  
C243     C      0.381100000000     0.977340000000     0.134650000000    -0.00724072 
C244     C      0.390280000000     0.003210000000     0.138750000000    -0.00619619 
C245     C      0.372630000000     0.024880000000     0.137840000000    -0.0529816  
C246     C      0.345650000000     0.020170000000     0.132030000000    -0.00604991 
C247     C      0.867120000000     0.212170000000     0.402910000000    -0.00697383 
C248     C      0.868750000000     0.233870000000     0.385300000000    -0.0516472  
C249     C      0.873670000000     0.228990000000     0.358200000000    -0.00731989 
C250     C      0.877760000000     0.203110000000     0.349020000000    -0.00619648 
C251     C      0.876830000000     0.181440000000     0.366660000000    -0.0529265  
C252     C      0.871030000000     0.186150000000     0.393640000000    -0.00612559 
C253     C      0.854810000000     0.370080000000     0.499310000000    -0.00722095 
C254     C      0.859710000000     0.342980000000     0.494420000000    -0.0516554  
C255     C      0.861320000000     0.325360000000     0.516110000000    -0.0068995  
C256     C      0.857430000000     0.334620000000     0.542140000000    -0.00625117 
C257     C      0.851640000000     0.361600000000     0.546850000000    -0.0527731  
C258     C      0.850730000000     0.379260000000     0.525190000000    -0.00633132 
C259     C      0.892120000000     0.356120000000     0.734130000000    -0.00696095 
C260     C      0.874500000000     0.357730000000     0.755820000000    -0.0516852  
C261     C      0.847400000000     0.362630000000     0.750930000000    -0.00719388 
C262     C      0.838220000000     0.366720000000     0.725060000000    -0.00629169 
C263     C      0.855870000000     0.365800000000     0.703390000000    -0.052819   
C264     C      0.882850000000     0.360020000000     0.708100000000    -0.00619817 
C265     C      0.881240000000     0.479030000000     0.865640000000    -0.00717499 
C266     C      0.854140000000     0.483920000000     0.870560000000    -0.0517     
C267     C      0.836520000000     0.462220000000     0.872170000000    -0.00693937 
C268     C      0.845790000000     0.436190000000     0.868260000000    -0.00624554 
C269     C      0.872770000000     0.431490000000     0.862460000000    -0.0527549  
C270     C      0.890420000000     0.453150000000     0.861540000000    -0.00633694 
C271     C      0.847410000000     0.593730000000     0.749300000000    -0.00718264 
C272     C      0.874510000000     0.598640000000     0.744400000000    -0.0517389  
C273     C      0.892130000000     0.600240000000     0.766100000000    -0.00692769 
C274     C      0.882860000000     0.596350000000     0.792130000000    -0.00621839 
C275     C      0.855880000000     0.590560000000     0.796830000000    -0.052822   
C276     C      0.838230000000     0.589650000000     0.775170000000    -0.00626838 
C277     C      0.845780000000     0.520180000000     0.631970000000    -0.00626063 
C278     C      0.872770000000     0.524880000000     0.637760000000    -0.0528527  
C279     C      0.890410000000     0.503210000000     0.638670000000    -0.00625767 
C280     C      0.881230000000     0.477340000000     0.634570000000    -0.00719324 
C281     C      0.854130000000     0.472450000000     0.629670000000    -0.0517361  
C282     C      0.836520000000     0.494150000000     0.628070000000    -0.00686088 
C283     C      0.873740000000     0.728960000000     0.642010000000    -0.00727504 
C284     C      0.868830000000     0.733840000000     0.614920000000    -0.0515952  
C285     C      0.867240000000     0.712150000000     0.597300000000    -0.00697633 
C286     C      0.871160000000     0.686120000000     0.606560000000    -0.00622512 
C287     C      0.876950000000     0.681420000000     0.633540000000    -0.0527817  
C288     C      0.877850000000     0.703080000000     0.651190000000    -0.00625155 
C289     C      0.714260000000     0.629320000000     0.888670000000    -0.00619691 
C290     C      0.692590000000     0.611680000000     0.887760000000    -0.0529113  
C291     C      0.697300000000     0.584700000000     0.881960000000    -0.00609793 
C292     C      0.723320000000     0.575430000000     0.878050000000    -0.00700553 
C293     C      0.745020000000     0.593040000000     0.879650000000    -0.0516414  
C294     C      0.740140000000     0.620140000000     0.884560000000    -0.00726816 
C295     C      0.854730000000     0.086330000000     0.999330000000    -0.00719014 
C296     C      0.859640000000     0.113430000000     0.994440000000    -0.051665   
C297     C      0.861230000000     0.131050000000     0.016130000000    -0.0069441  
C298     C      0.857320000000     0.121780000000     0.042160000000    -0.00622138 
C299     C      0.851520000000     0.094800000000     0.046860000000    -0.0527275  
C300     C      0.850620000000     0.077150000000     0.025200000000    -0.00634147 
C301     C      0.867200000000     0.244220000000     0.902930000000    -0.00691387 
C302     C      0.868790000000     0.222520000000     0.885310000000    -0.051759   
C303     C      0.873710000000     0.227410000000     0.858210000000    -0.00719668 
C304     C      0.877820000000     0.253280000000     0.849030000000    -0.00630398 
C305     C      0.876920000000     0.274950000000     0.866680000000    -0.0528227  
C306     C      0.871120000000     0.270250000000     0.893660000000    -0.00622523 
C307     C      0.947180000000     0.110030000000     0.856630000000    -0.00609142 
C308     C      0.942470000000     0.115830000000     0.883600000000    -0.0529421  
C309     C      0.964130000000     0.116730000000     0.901250000000    -0.00623304 
C310     C      0.990010000000     0.112610000000     0.892080000000    -0.00721367 
C311     C      0.994900000000     0.107690000000     0.864980000000    -0.0515954  
C312     C      0.973210000000     0.106100000000     0.847360000000    -0.00700595 
C313     C      0.488510000000     0.612620000000     0.892060000000    -0.007263   
C314     C      0.483620000000     0.607710000000     0.864960000000    -0.0516809  
C315     C      0.505310000000     0.606130000000     0.847340000000    -0.00693249 
C316     C      0.531340000000     0.610050000000     0.856600000000    -0.00622071 
C317     C      0.536050000000     0.615840000000     0.883580000000    -0.0528376  
C318     C      0.514390000000     0.616730000000     0.901230000000    -0.00626444 
C319     C      0.361270000000     0.825320000000     0.016200000000    -0.00697341 
C320     C      0.359680000000     0.842940000000     0.994500000000    -0.0516634  
C321     C      0.354770000000     0.870050000000     0.999390000000    -0.00729371 
C322     C      0.350670000000     0.879220000000     0.025260000000    -0.00619426 
C323     C      0.351570000000     0.861580000000     0.046920000000    -0.0528673  
C324     C      0.357360000000     0.834590000000     0.042220000000    -0.00620194 
C325     C      0.373700000000     0.728940000000     0.858280000000    -0.00724345 
C326     C      0.368810000000     0.733820000000     0.885380000000    -0.0516081  
C327     C      0.367230000000     0.712120000000     0.903000000000    -0.00698584 
C328     C      0.371140000000     0.686100000000     0.893730000000    -0.00621909 
C329     C      0.376920000000     0.681400000000     0.866740000000    -0.0528031  
C330     C      0.377810000000     0.703070000000     0.849100000000    -0.00625779 
C331     C      0.381230000000     0.477320000000     0.865710000000    -0.00718264 
C332     C      0.354120000000     0.472430000000     0.870610000000    -0.051702   
C333     C      0.336510000000     0.494130000000     0.872210000000    -0.00686213 
C334     C      0.345770000000     0.520160000000     0.868310000000    -0.00628922 
C335     C      0.372750000000     0.524860000000     0.862520000000    -0.0527383  
C336     C      0.390410000000     0.503200000000     0.861610000000    -0.00636508 
C337     C      0.097290000000     0.977290000000     0.865700000000    -0.00721506 
C338     C      0.124390000000     0.972400000000     0.870610000000    -0.0517147  
C339     C      0.142000000000     0.994100000000     0.872230000000    -0.00691195 
C340     C      0.132740000000     0.020130000000     0.868330000000    -0.00621919 
C341     C      0.105760000000     0.024830000000     0.862520000000    -0.0527913  
C342     C      0.088110000000     0.003170000000     0.861600000000    -0.00628784 
C343     C      0.255210000000     0.880900000000     0.878120000000    -0.00697152 
C344     C      0.233520000000     0.863280000000     0.879740000000    -0.0516232  
C345     C      0.238400000000     0.836190000000     0.884670000000    -0.00724099 
C346     C      0.264280000000     0.827010000000     0.888780000000    -0.00629799 
C347     C      0.285950000000     0.844660000000     0.887850000000    -0.0527981  
C348     C      0.281240000000     0.871640000000     0.882040000000    -0.00619326 
C349     C      0.338230000000     0.589590000000     0.725100000000    -0.00624923 
C350     C      0.355880000000     0.590500000000     0.703440000000    -0.0528824  
C351     C      0.382870000000     0.596290000000     0.708150000000    -0.00613464 
C352     C      0.392130000000     0.600200000000     0.734180000000    -0.00703661 
C353     C      0.374500000000     0.598600000000     0.755870000000    -0.0515659  
C354     C      0.347400000000     0.593690000000     0.750980000000    -0.00729117 
C355     C      0.354850000000     0.586220000000     0.499360000000    -0.00722241 
C356     C      0.359740000000     0.613320000000     0.494470000000    -0.0517042  
C357     C      0.361350000000     0.630940000000     0.516170000000    -0.00692301 
C358     C      0.357470000000     0.621670000000     0.542190000000    -0.0062107  
C359     C      0.351690000000     0.594690000000     0.546900000000    -0.0527605  
C360     C      0.350770000000     0.577040000000     0.525240000000    -0.00628251 
C361     C      0.255240000000     0.575340000000     0.378090000000    -0.00690625 
C362     C      0.233540000000     0.592960000000     0.379690000000    -0.0517676  
C363     C      0.238430000000     0.620060000000     0.384610000000    -0.0071339  
C364     C      0.264300000000     0.629240000000     0.388720000000    -0.00636423 
C365     C      0.285970000000     0.611590000000     0.387810000000    -0.0527601  
C366     C      0.281270000000     0.584610000000     0.382010000000    -0.00624841 
C367     C      0.123760000000     0.586220000000     0.500960000000    -0.00720511 
C368     C      0.118860000000     0.613330000000     0.505850000000    -0.0518443  
C369     C      0.117250000000     0.630940000000     0.484150000000    -0.00679772 
C370     C      0.121140000000     0.621680000000     0.458120000000    -0.00629888 
C371     C      0.126920000000     0.594690000000     0.453420000000    -0.0528015  
C372     C      0.127840000000     0.577040000000     0.475080000000    -0.00631276 
C373     C      0.031360000000     0.609990000000     0.643660000000    -0.00612577 
C374     C      0.036070000000     0.615780000000     0.616680000000    -0.0529142  
C375     C      0.014400000000     0.616700000000     0.599030000000    -0.00629493 
C376     C      0.988520000000     0.612600000000     0.608200000000    -0.00721254 
C377     C      0.983630000000     0.607690000000     0.635300000000    -0.0517102  
C378     C      0.005330000000     0.606080000000     0.652920000000    -0.00701021 
C379     C      0.197320000000     0.584610000000     0.618310000000    -0.00617804 
C380     C      0.192620000000     0.611590000000     0.612500000000    -0.0528573  
C381     C      0.214280000000     0.629230000000     0.611590000000    -0.00618528 
C382     C      0.240160000000     0.620060000000     0.615690000000    -0.0073069  
C383     C      0.245040000000     0.592950000000     0.620610000000    -0.0516941  
C384     C      0.223340000000     0.575340000000     0.622220000000    -0.00694886 
C385     C      0.697280000000     0.371670000000     0.618270000000    -0.00619356 
C386     C      0.692580000000     0.344690000000     0.612460000000    -0.0528311  
C387     C      0.714250000000     0.327040000000     0.611540000000    -0.00627077 
C388     C      0.740130000000     0.336220000000     0.615640000000    -0.00727664 
C389     C      0.745010000000     0.363320000000     0.620570000000    -0.0516039  
C390     C      0.723310000000     0.380940000000     0.622180000000    -0.00698144 
C391     C      0.392120000000     0.356070000000     0.766170000000    -0.00686842 
C392     C      0.374510000000     0.357660000000     0.744480000000    -0.0516544  
C393     C      0.347400000000     0.362560000000     0.749360000000    -0.00729791 
C394     C      0.338220000000     0.366660000000     0.775240000000    -0.00628968 
C395     C      0.355870000000     0.365760000000     0.796900000000    -0.052787   
C396     C      0.382860000000     0.359970000000     0.792200000000    -0.00627531 
C397     C      0.488500000000     0.343660000000     0.608240000000    -0.00716013 
C398     C      0.483620000000     0.348570000000     0.635340000000    -0.0517326  
C399     C      0.505320000000     0.350170000000     0.652950000000    -0.00692023 
C400     C      0.531350000000     0.346270000000     0.643670000000    -0.006249   
C401     C      0.536040000000     0.340480000000     0.616690000000    -0.0527538  
C402     C      0.514370000000     0.339570000000     0.599050000000    -0.00634115 
C403     C      0.345800000000     0.436110000000     0.632030000000    -0.00621504 
C404     C      0.372780000000     0.431400000000     0.637830000000    -0.0528248  
C405     C      0.390430000000     0.453070000000     0.638750000000    -0.00627493 
C406     C      0.381260000000     0.478940000000     0.634650000000    -0.00726322 
C407     C      0.354160000000     0.483830000000     0.629730000000    -0.0516327  
C408     C      0.336540000000     0.462140000000     0.628120000000    -0.00695524 
C409     C      0.347270000000     0.862600000000     0.250990000000    -0.00727219 
C410     C      0.374380000000     0.857700000000     0.255880000000    -0.0516824  
C411     C      0.391990000000     0.856090000000     0.234190000000    -0.00687023 
C412     C      0.382730000000     0.860000000000     0.208160000000    -0.00627253 
C413     C      0.355750000000     0.865790000000     0.203460000000    -0.0527653  
C414     C      0.338100000000     0.866700000000     0.225120000000    -0.00626208 
C415     C      0.488380000000     0.843710000000     0.392100000000    -0.00714946 
C416     C      0.483490000000     0.848630000000     0.365010000000    -0.051746   
C417     C      0.505190000000     0.850240000000     0.347390000000    -0.00691639 
C418     C      0.531220000000     0.846340000000     0.356660000000    -0.00623628 
C419     C      0.535920000000     0.840530000000     0.383640000000    -0.052812   
C420     C      0.514260000000     0.839610000000     0.401280000000    -0.00631253 
C421     C      0.377760000000     0.753220000000     0.349090000000    -0.00612273 
C422     C      0.376840000000     0.774890000000     0.366730000000    -0.0529983  
C423     C      0.371050000000     0.770180000000     0.393710000000    -0.00612102 
C424     C      0.367150000000     0.744150000000     0.402980000000    -0.00699524 
C425     C      0.368760000000     0.722450000000     0.385360000000    -0.0516505  
C426     C      0.373670000000     0.727340000000     0.358260000000    -0.00734048 
C427     C      0.390280000000     0.953100000000     0.361630000000    -0.00624853 
C428     C      0.372630000000     0.931430000000     0.362540000000    -0.052869   
C429     C      0.345650000000     0.936140000000     0.368330000000    -0.00614273 
C430     C      0.336380000000     0.962160000000     0.372240000000    -0.00701148 
C431     C      0.354000000000     0.983860000000     0.370630000000    -0.0516591  
C432     C      0.381100000000     0.978970000000     0.365730000000    -0.00723176 
C433     C      0.836400000000     0.994160000000     0.372190000000    -0.00704583 
C434     C      0.854020000000     0.972460000000     0.370580000000    -0.0516434  
C435     C      0.881120000000     0.977350000000     0.365650000000    -0.00734787 
C436     C      0.890290000000     0.003230000000     0.361550000000    -0.00618182 
C437     C      0.872640000000     0.024890000000     0.362470000000    -0.0528816  
C438     C      0.845670000000     0.020190000000     0.368280000000    -0.00607291 
C439     C      0.740010000000     0.836260000000     0.384610000000    -0.00717621 
C440     C      0.744900000000     0.863360000000     0.379710000000    -0.0517066  
C441     C      0.723210000000     0.880980000000     0.378120000000    -0.00691869 
C442     C      0.697180000000     0.871720000000     0.382030000000    -0.0062545  
C443     C      0.692470000000     0.844740000000     0.387820000000    -0.0527574  
C444     C      0.714130000000     0.827080000000     0.388720000000    -0.00636371 
C445     C      0.850710000000     0.879250000000     0.475050000000    -0.00623013 
C446     C      0.851590000000     0.861600000000     0.453390000000    -0.0528879  
C447     C      0.857370000000     0.834620000000     0.458090000000    -0.00614553 
C448     C      0.861290000000     0.825350000000     0.484120000000    -0.0069695  
C449     C      0.859710000000     0.842970000000     0.505810000000    -0.0516381  
C450     C      0.854810000000     0.870070000000     0.500920000000    -0.00724677 
C451     C      0.607300000000     0.270270000000     0.106600000000    -0.00619464 
C452     C      0.601520000000     0.274980000000     0.133580000000    -0.0528107  
C453     C      0.600620000000     0.253310000000     0.151230000000    -0.0063021  
C454     C      0.604710000000     0.227440000000     0.142050000000    -0.00725393 
C455     C      0.609600000000     0.222550000000     0.114950000000    -0.0516133  
C456     C      0.611200000000     0.244250000000     0.097330000000    -0.00699196 
C457     C      0.642000000000     0.462250000000     0.128080000000    -0.00705482 
C458     C      0.624380000000     0.483940000000     0.129680000000    -0.0515718  
C459     C      0.597280000000     0.479060000000     0.134590000000    -0.0073301  
C460     C      0.588100000000     0.453190000000     0.138690000000    -0.00616986 
C461     C      0.605740000000     0.431520000000     0.137780000000    -0.0529303  
C462     C      0.632720000000     0.436220000000     0.131990000000    -0.00606455 
C463     C      0.627810000000     0.577140000000     0.025180000000    -0.00623908 
C464     C      0.626890000000     0.594790000000     0.046840000000    -0.0528079  
C465     C      0.621100000000     0.621770000000     0.042140000000    -0.00629114 
C466     C      0.617210000000     0.631030000000     0.016110000000    -0.00683605 
C467     C      0.618830000000     0.613420000000     0.994410000000    -0.0517607  
C468     C      0.623730000000     0.586310000000     0.999300000000    -0.00726956 
C469     C      0.738400000000     0.336270000000     0.384570000000    -0.00728731 
C470     C      0.733520000000     0.363370000000     0.379660000000    -0.0516173  
C471     C      0.755220000000     0.380990000000     0.378070000000    -0.00700854 
C472     C      0.781240000000     0.371720000000     0.381980000000    -0.00614919 
C473     C      0.785940000000     0.344740000000     0.387770000000    -0.0528472  
C474     C      0.764280000000     0.327090000000     0.388670000000    -0.00623495 
C475     C      0.621100000000     0.334630000000     0.458100000000    -0.00621907 
C476     C      0.626880000000     0.361620000000     0.453400000000    -0.0528025  
C477     C      0.627790000000     0.379260000000     0.475060000000    -0.00628052 
C478     C      0.623710000000     0.370070000000     0.500940000000    -0.00720065 
C479     C      0.618810000000     0.342970000000     0.505820000000    -0.0517051  
C480     C      0.617210000000     0.325360000000     0.484120000000    -0.00690578 
C481     C      0.640290000000     0.366760000000     0.275200000000    -0.00627093 
C482     C      0.622650000000     0.365850000000     0.296860000000    -0.0527629  
C483     C      0.595660000000     0.360080000000     0.292160000000    -0.00626165 
C484     C      0.586390000000     0.356180000000     0.266130000000    -0.00691572 
C485     C      0.604010000000     0.357780000000     0.244440000000    -0.0516639  
C486     C      0.631110000000     0.362670000000     0.249320000000    -0.00725553 
C487     C      0.490060000000     0.612640000000     0.392060000000    -0.00724969 
C488     C      0.494940000000     0.607730000000     0.364950000000    -0.0517043  
C489     C      0.473230000000     0.606120000000     0.347340000000    -0.00696238 
C490     C      0.447210000000     0.610020000000     0.356620000000    -0.00616081 
C491     C      0.442510000000     0.615810000000     0.383600000000    -0.0528329  
C492     C      0.464180000000     0.616730000000     0.401240000000    -0.00627471 
C493     C      0.586420000000     0.600280000000     0.234130000000    -0.00693551 
C494     C      0.604040000000     0.598680000000     0.255820000000    -0.0516669  
C495     C      0.631150000000     0.593790000000     0.250930000000    -0.00726513 
C496     C      0.640320000000     0.589700000000     0.225050000000    -0.00625449 
C497     C      0.622670000000     0.590600000000     0.203390000000    -0.0527596  
C498     C      0.595680000000     0.596390000000     0.208100000000    -0.00626133 
C499     C      0.632770000000     0.520220000000     0.368260000000    -0.00628001 
C500     C      0.605790000000     0.524920000000     0.362470000000    -0.0527394  
C501     C      0.588130000000     0.503260000000     0.361570000000    -0.00635388 
C502     C      0.597310000000     0.477380000000     0.365680000000    -0.00718695 
C503     C      0.624410000000     0.472490000000     0.370580000000    -0.0517307  
C504     C      0.642030000000     0.494190000000     0.372180000000    -0.0068657  
C505     C      0.607380000000     0.686160000000     0.393670000000    -0.00613058 
C506     C      0.601580000000     0.681460000000     0.366690000000    -0.0529087  
C507     C      0.600660000000     0.703140000000     0.349050000000    -0.00625804 
C508     C      0.604750000000     0.729010000000     0.358240000000    -0.00724038 
C509     C      0.609670000000     0.733890000000     0.385340000000    -0.0516752  
C510     C      0.611280000000     0.712190000000     0.402950000000    -0.00698145 
C511     C      0.847260000000     0.862670000000     0.249310000000    -0.00727195 
C512     C      0.874360000000     0.857760000000     0.244420000000    -0.0516753  
C513     C      0.891980000000     0.856150000000     0.266110000000    -0.00690479 
C514     C      0.882720000000     0.860040000000     0.292140000000    -0.00620662 
C515     C      0.855740000000     0.865830000000     0.296850000000    -0.0528173  
C516     C      0.838090000000     0.866750000000     0.275190000000    -0.00623924 
C517     C      0.890260000000     0.953190000000     0.138680000000    -0.00626583 
C518     C      0.872610000000     0.931520000000     0.137770000000    -0.0528621  
C519     C      0.845620000000     0.936230000000     0.131980000000    -0.00619891 
C520     C      0.836360000000     0.962250000000     0.128070000000    -0.00690805 
C521     C      0.853970000000     0.983950000000     0.129670000000    -0.0516861  
C522     C      0.881080000000     0.979070000000     0.134580000000    -0.00730182 
C523     C      0.473210000000     0.850240000000     0.847390000000    -0.00689458 
C524     C      0.494920000000     0.848640000000     0.865000000000    -0.0517769  
C525     C      0.490040000000     0.843720000000     0.892100000000    -0.00719454 
C526     C      0.464160000000     0.839600000000     0.901280000000    -0.00629404 
C527     C      0.442490000000     0.840510000000     0.883640000000    -0.0528379  
C528     C      0.447190000000     0.846320000000     0.856660000000    -0.00623085 
C529     C      0.600700000000     0.753300000000     0.849050000000    -0.0063306  
C530     C      0.601610000000     0.774960000000     0.866700000000    -0.0527336  
C531     C      0.607420000000     0.770260000000     0.893670000000    -0.00625624 
C532     C      0.611340000000     0.744230000000     0.902930000000    -0.00689907 
C533     C      0.609740000000     0.722530000000     0.885310000000    -0.0517501  
C534     C      0.604820000000     0.727420000000     0.858220000000    -0.00718318 
C535     C      0.738450000000     0.836220000000     0.615690000000    -0.00721802 
C536     C      0.733560000000     0.863320000000     0.620600000000    -0.0516315  
C537     C      0.755260000000     0.880940000000     0.622200000000    -0.00699447 
C538     C      0.781280000000     0.871670000000     0.618280000000    -0.00617249 
C539     C      0.785990000000     0.844690000000     0.612480000000    -0.052817   
C540     C      0.764320000000     0.827040000000     0.611580000000    -0.00629917 
C541     C      0.621090000000     0.834610000000     0.542200000000    -0.006244   
C542     C      0.626880000000     0.861590000000     0.546910000000    -0.0527329  
C543     C      0.627770000000     0.879250000000     0.525250000000    -0.00633359 
C544     C      0.623660000000     0.870080000000     0.499380000000    -0.00724638 
C545     C      0.618760000000     0.842980000000     0.494490000000    -0.0516385  
C546     C      0.617170000000     0.825350000000     0.516180000000    -0.00696572 
C547     C      0.640330000000     0.866740000000     0.725110000000    -0.00620318 
C548     C      0.622690000000     0.865810000000     0.703450000000    -0.05286    
C549     C      0.595710000000     0.860020000000     0.708150000000    -0.00613865 
C550     C      0.586430000000     0.856130000000     0.734180000000    -0.0070158  
C551     C      0.604050000000     0.857750000000     0.755870000000    -0.0516145  
C552     C      0.631150000000     0.862660000000     0.750990000000    -0.00729651 
C553     C      0.973260000000     0.850180000000     0.652930000000    -0.00700586 
C554     C      0.994960000000     0.848570000000     0.635320000000    -0.0515849  
C555     C      0.990080000000     0.843660000000     0.608220000000    -0.007207   
C556     C      0.964200000000     0.839570000000     0.599030000000    -0.0062892  
C557     C      0.942530000000     0.840490000000     0.616670000000    -0.0528348  
C558     C      0.947230000000     0.846280000000     0.643650000000    -0.00614634 
C559     C      0.131160000000     0.862560000000     0.749360000000    -0.00717659 
C560     C      0.104060000000     0.857650000000     0.744460000000    -0.0517704  
C561     C      0.086440000000     0.856040000000     0.766160000000    -0.00690775 
C562     C      0.095700000000     0.859940000000     0.792180000000    -0.00624492 
C563     C      0.122680000000     0.865740000000     0.796890000000    -0.0527985  
C564     C      0.140330000000     0.866660000000     0.775230000000    -0.00627854 
C565     C      0.107460000000     0.770160000000     0.606630000000    -0.00617456 
C566     C      0.101650000000     0.774860000000     0.633600000000    -0.052816   
C567     C      0.100740000000     0.753190000000     0.651250000000    -0.00629329 
C568     C      0.104850000000     0.727320000000     0.642070000000    -0.00723198 
C569     C      0.109780000000     0.722440000000     0.614970000000    -0.051709   
C570     C      0.111380000000     0.744140000000     0.597360000000    -0.00694158 
C571     C      0.088140000000     0.953070000000     0.638750000000    -0.00629054 
C572     C      0.105790000000     0.931410000000     0.637820000000    -0.0528208  
C573     C      0.132770000000     0.936120000000     0.632020000000    -0.00618317 
C574     C      0.142030000000     0.962150000000     0.628110000000    -0.00696505 
C575     C      0.124410000000     0.983840000000     0.629730000000    -0.051688   
C576     C      0.097310000000     0.978950000000     0.634650000000    -0.00725176 
C577     C      0.361250000000     0.130960000000     0.484180000000    -0.00695099 
C578     C      0.359660000000     0.113330000000     0.505880000000    -0.0517158  
C579     C      0.354760000000     0.086230000000     0.500980000000    -0.00717788 
C580     C      0.350650000000     0.077060000000     0.475110000000    -0.00630229 
C581     C      0.351560000000     0.094710000000     0.453450000000    -0.0527394  
C582     C      0.357340000000     0.121690000000     0.458150000000    -0.00624268 
C583     C      0.373730000000     0.227320000000     0.642090000000    -0.0072287  
C584     C      0.368800000000     0.222440000000     0.615000000000    -0.0516325  
C585     C      0.367200000000     0.244140000000     0.597380000000    -0.00704437 
C586     C      0.371120000000     0.270160000000     0.606650000000    -0.00611338 
C587     C      0.376940000000     0.274860000000     0.633630000000    -0.0529224  
C588     C      0.377850000000     0.253190000000     0.651270000000    -0.00624296 
C589     C      0.238400000000     0.120070000000     0.615720000000    -0.00730356 
C590     C      0.233510000000     0.092970000000     0.620630000000    -0.0516759  
C591     C      0.255210000000     0.075350000000     0.622230000000    -0.00689813 
C592     C      0.281240000000     0.084610000000     0.618330000000    -0.0062335  
C593     C      0.285940000000     0.111590000000     0.612530000000    -0.0528381  
C594     C      0.264280000000     0.129240000000     0.611620000000    -0.00622066 
C595     C      0.473240000000     0.106080000000     0.652940000000    -0.00696659 
C596     C      0.494930000000     0.107690000000     0.635320000000    -0.0516555  
C597     C      0.490040000000     0.112590000000     0.608220000000    -0.00722841 
C598     C      0.464160000000     0.116690000000     0.599050000000    -0.00626261 
C599     C      0.442500000000     0.115780000000     0.616700000000    -0.0528598  
C600     C      0.447210000000     0.109980000000     0.643680000000    -0.00616261 
C601     C      0.632790000000     0.020170000000     0.632010000000    -0.00613654 
C602     C      0.605810000000     0.024870000000     0.637800000000    -0.0528623  
C603     C      0.588160000000     0.003200000000     0.638710000000    -0.00620281 
C604     C      0.597340000000     0.977330000000     0.634610000000    -0.0072848  
C605     C      0.624440000000     0.972440000000     0.629710000000    -0.0516187  
C606     C      0.642060000000     0.994140000000     0.628110000000    -0.00703561 
C607     C      0.607410000000     0.186110000000     0.606570000000    -0.0062281  
C608     C      0.601630000000     0.181410000000     0.633560000000    -0.052878   
C609     C      0.600740000000     0.203070000000     0.651200000000    -0.00616816 
C610     C      0.604860000000     0.228950000000     0.642030000000    -0.00736191 
C611     C      0.609750000000     0.233830000000     0.614920000000    -0.0516259  
C612     C      0.611330000000     0.212130000000     0.597310000000    -0.00690599 
C613     C      0.738380000000     0.120160000000     0.884610000000    -0.00718292 
C614     C      0.733490000000     0.093060000000     0.879700000000    -0.051701   
C615     C      0.755180000000     0.075440000000     0.878090000000    -0.00692529 
C616     C      0.781210000000     0.084710000000     0.881990000000    -0.00624595 
C617     C      0.785920000000     0.111690000000     0.887790000000    -0.0527714  
C618     C      0.764260000000     0.129340000000     0.888710000000    -0.00633114 
C619     C      0.641980000000     0.962250000000     0.872240000000    -0.00684856 
C620     C      0.624370000000     0.983950000000     0.870610000000    -0.0518654  
C621     C      0.597270000000     0.979060000000     0.865670000000    -0.00719997 
C622     C      0.588100000000     0.953180000000     0.861570000000    -0.00623526 
C623     C      0.605740000000     0.931510000000     0.862510000000    -0.0528602  
C624     C      0.632720000000     0.936220000000     0.868330000000    -0.0062428  
C625     C      0.586420000000     0.100260000000     0.766120000000    -0.00697056 
C626     C      0.604040000000     0.098640000000     0.744430000000    -0.0516865  
C627     C      0.631140000000     0.093740000000     0.749330000000    -0.00724045 
C628     C      0.640310000000     0.089650000000     0.775210000000    -0.00625109 
C629     C      0.622660000000     0.090580000000     0.796870000000    -0.0529193  
C630     C      0.595680000000     0.096370000000     0.792150000000    -0.00613233 
C631     C      0.627690000000     0.077150000000     0.975070000000    -0.00639103 
C632     C      0.626790000000     0.094800000000     0.953410000000    -0.0526924  
C633     C      0.621000000000     0.121790000000     0.958110000000    -0.00633294 
C634     C      0.617090000000     0.131050000000     0.984140000000    -0.00682133 
C635     C      0.618680000000     0.113430000000     0.005830000000    -0.051788   
C636     C      0.623590000000     0.086330000000     0.000940000000    -0.00711649 
C637     C      0.857450000000     0.621760000000     0.958080000000    -0.00613387 
C638     C      0.851660000000     0.594780000000     0.953380000000    -0.0528626  
C639     C      0.850750000000     0.577140000000     0.975040000000    -0.00621311 
C640     C      0.854830000000     0.586320000000     0.000920000000    -0.00727583 
C641     C      0.859730000000     0.613420000000     0.005800000000    -0.0516486  
C642     C      0.861340000000     0.631040000000     0.984110000000    -0.00701318 
C643     C      0.873630000000     0.727440000000     0.142020000000    -0.00725188 
C644     C      0.868740000000     0.722550000000     0.114920000000    -0.0516089  
C645     C      0.867150000000     0.744250000000     0.097300000000    -0.00701624 
C646     C      0.871040000000     0.770270000000     0.106570000000    -0.00614359 
C647     C      0.876820000000     0.774980000000     0.133550000000    -0.0528512  
C648     C      0.877720000000     0.753320000000     0.151200000000    -0.00624304 
C649     C      0.781240000000     0.584710000000     0.118250000000    -0.00628361 
C650     C      0.785940000000     0.611690000000     0.112440000000    -0.0527742  
C651     C      0.764270000000     0.629340000000     0.111520000000    -0.00633617 
C652     C      0.738400000000     0.620160000000     0.115630000000    -0.00717324 
C653     C      0.733510000000     0.593060000000     0.120560000000    -0.051785   
C654     C      0.755210000000     0.575450000000     0.122170000000    -0.00682276 
C655     C      0.367100000000     0.212160000000     0.097390000000    -0.00696178 
C656     C      0.368720000000     0.233860000000     0.115000000000    -0.0516518  
C657     C      0.373630000000     0.228970000000     0.142100000000    -0.00724494 
C658     C      0.377720000000     0.203090000000     0.151280000000    -0.00620982 
C659     C      0.376800000000     0.181430000000     0.133640000000    -0.052866   
C660     C      0.371000000000     0.186130000000     0.106660000000    -0.00619703 
C661     C      0.350700000000     0.379240000000     0.975100000000    -0.00631338 
C662     C      0.351630000000     0.361590000000     0.953440000000    -0.0528275  
C663     C      0.357420000000     0.334610000000     0.958150000000    -0.00617242 
C664     C      0.361310000000     0.325340000000     0.984180000000    -0.0069513  
C665     C      0.359680000000     0.342960000000     0.005880000000    -0.051751   
C666     C      0.354770000000     0.370060000000     0.000980000000    -0.00715957 
C667     C      0.447150000000     0.346350000000     0.143700000000    -0.00626352 
C668     C      0.442450000000     0.340550000000     0.116730000000    -0.0527142  
C669     C      0.464110000000     0.339650000000     0.099070000000    -0.00638169 
C670     C      0.489980000000     0.343770000000     0.108250000000    -0.00712559 
C671     C      0.494870000000     0.348680000000     0.135340000000    -0.0517688  
C672     C      0.473180000000     0.350270000000     0.152960000000    -0.00684543 
C673     C      0.990030000000     0.343700000000     0.392040000000    -0.00712773 
C674     C      0.994920000000     0.348610000000     0.364940000000    -0.0516989  
C675     C      0.973230000000     0.350210000000     0.347330000000    -0.00683251 
C676     C      0.947200000000     0.346310000000     0.356590000000    -0.00629704 
C677     C      0.942490000000     0.340520000000     0.383570000000    -0.0527366  
C678     C      0.964150000000     0.339610000000     0.401220000000    -0.0063517  
C679     C      0.088150000000     0.453070000000     0.361600000000    -0.00625598 
C680     C      0.105800000000     0.431410000000     0.362490000000    -0.0528096  
C681     C      0.132780000000     0.436110000000     0.368260000000    -0.00618952 
C682     C      0.142050000000     0.462140000000     0.372170000000    -0.00694188 
C683     C      0.124430000000     0.483840000000     0.370590000000    -0.0516745  
C684     C      0.097320000000     0.478950000000     0.365700000000    -0.00726729 
C685     C      0.100660000000     0.253200000000     0.349070000000    -0.00634379 
C686     C      0.101570000000     0.274870000000     0.366720000000    -0.0528045  
C687     C      0.107350000000     0.270170000000     0.393700000000    -0.00620084 
C688     C      0.111240000000     0.244150000000     0.402970000000    -0.00690313 
C689     C      0.109650000000     0.222450000000     0.385360000000    -0.0517044  
C690     C      0.104750000000     0.227330000000     0.358260000000    -0.00720512 
C691     C      0.131120000000     0.593710000000     0.249340000000    -0.00721734 
C692     C      0.104020000000     0.598610000000     0.244460000000    -0.0517     
C693     C      0.086400000000     0.600200000000     0.266160000000    -0.00696209 
C694     C      0.095680000000     0.596290000000     0.292190000000    -0.00622804 
C695     C      0.122660000000     0.590510000000     0.296880000000    -0.0527501  
C696     C      0.140310000000     0.589610000000     0.275220000000    -0.0063132  
C697     C      0.973190000000     0.606150000000     0.152940000000    -0.00695306 
C698     C      0.994890000000     0.607740000000     0.135330000000    -0.0516207  
C699     C      0.990020000000     0.612660000000     0.108230000000    -0.00718874 
C700     C      0.964150000000     0.616780000000     0.099050000000    -0.00632685 
C701     C      0.942470000000     0.615870000000     0.116690000000    -0.052767   
C702     C      0.947170000000     0.610070000000     0.143670000000    -0.0062233  
C703     C      0.117130000000     0.825330000000     0.984180000000    -0.00697672 
C704     C      0.118730000000     0.842960000000     0.005870000000    -0.0516536  
C705     C      0.123650000000     0.870060000000     0.000970000000    -0.00725201 
C706     C      0.127750000000     0.879230000000     0.975090000000    -0.0062851  
C707     C      0.126840000000     0.861570000000     0.953440000000    -0.0528276  
C708     C      0.121040000000     0.834590000000     0.958150000000    -0.00617779 
C709     C      0.104700000000     0.728980000000     0.142090000000    -0.00714225 
C710     C      0.109630000000     0.733870000000     0.115000000000    -0.051766   
C711     C      0.111250000000     0.712170000000     0.097390000000    -0.00688271 
C712     C      0.107350000000     0.686140000000     0.106650000000    -0.00626033 
C713     C      0.101540000000     0.681440000000     0.133630000000    -0.0527889  
C714     C      0.100610000000     0.703110000000     0.151270000000    -0.00632574 
C715     C      0.214120000000     0.827060000000     0.111630000000    -0.00618058 
C716     C      0.192460000000     0.844710000000     0.112530000000    -0.0528789  
C717     C      0.197170000000     0.871690000000     0.118320000000    -0.00611981 
C718     C      0.223200000000     0.880960000000     0.122230000000    -0.00706706 
C719     C      0.244890000000     0.863330000000     0.120630000000    -0.0515215  
C720     C      0.240000000000     0.836230000000     0.115730000000    -0.00734276 
C721     C      0.005170000000     0.850280000000     0.152940000000    -0.00694742 
C722     C      0.983480000000     0.848690000000     0.135320000000    -0.0517048  
C723     C      0.988370000000     0.843770000000     0.108220000000    -0.00715571 
C724     C      0.014250000000     0.839660000000     0.099050000000    -0.00632776 
C725     C      0.035910000000     0.840560000000     0.116700000000    -0.0528405  
C726     C      0.031200000000     0.846360000000     0.143680000000    -0.00621885 
C727     C      0.255170000000     0.380960000000     0.122210000000    -0.00695753 
C728     C      0.233470000000     0.363340000000     0.120590000000    -0.051674   
C729     C      0.238360000000     0.336240000000     0.115680000000    -0.00724031 
C730     C      0.264240000000     0.327060000000     0.111590000000    -0.0062823  
C731     C      0.285900000000     0.344710000000     0.112510000000    -0.0528165  
C732     C      0.281200000000     0.371690000000     0.118310000000    -0.00621566 
C733     C      0.141970000000     0.494160000000     0.128080000000    -0.00702509 
C734     C      0.124350000000     0.472460000000     0.129690000000    -0.0516477  
C735     C      0.097250000000     0.477350000000     0.134620000000    -0.00725587 
C736     C      0.088080000000     0.503230000000     0.138720000000    -0.00623623 
C737     C      0.105730000000     0.524890000000     0.137800000000    -0.0528273  
C738     C      0.132700000000     0.520180000000     0.132000000000    -0.00610461 
C739     C      0.086390000000     0.356090000000     0.234140000000    -0.00699274 
C740     C      0.104020000000     0.357680000000     0.255830000000    -0.0516332  
C741     C      0.131120000000     0.362580000000     0.250940000000    -0.00724191 
C742     C      0.140290000000     0.366680000000     0.225060000000    -0.00624438 
C743     C      0.122630000000     0.365780000000     0.203400000000    -0.0528676  
C744     C      0.095650000000     0.360000000000     0.208110000000    -0.00617858 
C745     C      0.104820000000     0.228920000000     0.858240000000    -0.00722175 
C746     C      0.109730000000     0.233810000000     0.885340000000    -0.0517343  
C747     C      0.111310000000     0.212110000000     0.902960000000    -0.00691466 
C748     C      0.107390000000     0.186080000000     0.893700000000    -0.00623637 
C749     C      0.101600000000     0.181380000000     0.866720000000    -0.0528196  
C750     C      0.100710000000     0.203040000000     0.849070000000    -0.0062913  
C751     C      0.123690000000     0.370050000000     0.999320000000    -0.00711293 
C752     C      0.118790000000     0.342950000000     0.994430000000    -0.0517611  
C753     C      0.117170000000     0.325340000000     0.016130000000    -0.00686986 
C754     C      0.121060000000     0.334610000000     0.042160000000    -0.00627936 
C755     C      0.126840000000     0.361590000000     0.046860000000    -0.0527178  
C756     C      0.127760000000     0.379240000000     0.025200000000    -0.00640078 
C757     C      0.031340000000     0.346290000000     0.856590000000    -0.00623638 
C758     C      0.036040000000     0.340490000000     0.883570000000    -0.0527747  
C759     C      0.014370000000     0.339600000000     0.901220000000    -0.0063764  
C760     C      0.988500000000     0.343720000000     0.892040000000    -0.00715888 
C761     C      0.983610000000     0.348630000000     0.864940000000    -0.0516834  
C762     C      0.005310000000     0.350210000000     0.847320000000    -0.00696965 
C763     C      0.197280000000     0.371640000000     0.881990000000    -0.00620292 
C764     C      0.192580000000     0.344660000000     0.887800000000    -0.0528146  
C765     C      0.214250000000     0.327020000000     0.888740000000    -0.0062949  
C766     C      0.240120000000     0.336200000000     0.884630000000    -0.00720543 
C767     C      0.245010000000     0.363300000000     0.879700000000    -0.0517491  
C768     C      0.223310000000     0.380910000000     0.878080000000    -0.00691686 
Cd1      Cd     0.114300000000     0.316210000000     0.912050000000     0.510942   
Cd2      Cd     0.151070000000     0.390070000000     0.125130000000     0.510976   
Cd3      Cd     0.114180000000     0.816260000000     0.088260000000     0.510938   
Cd4      Cd     0.077280000000     0.603160000000     0.162080000000     0.510955   
Cd5      Cd     0.077320000000     0.353140000000     0.338230000000     0.510929   
Cd6      Cd     0.364180000000     0.316250000000     0.088270000000     0.51094    
Cd7      Cd     0.864220000000     0.640150000000     0.088190000000     0.51098    
Cd8      Cd     0.651090000000     0.066340000000     0.875150000000     0.510949   
Cd9      Cd     0.577340000000     0.103150000000     0.662030000000     0.510975   
Cd10     Cd     0.364220000000     0.140050000000     0.588270000000     0.510976   
Cd11     Cd     0.077350000000     0.853120000000     0.662070000000     0.510925   
Cd12     Cd     0.651160000000     0.890040000000     0.625180000000     0.510972   
Cd13     Cd     0.577300000000     0.853230000000     0.838260000000     0.510953   
Cd14     Cd     0.901070000000     0.853250000000     0.162020000000     0.510969   
Cd15     Cd     0.577330000000     0.603200000000     0.338210000000     0.510974   
Cd16     Cd     0.651120000000     0.390100000000     0.375130000000     0.510968   
Cd17     Cd     0.651120000000     0.566330000000     0.125120000000     0.510946   
Cd18     Cd     0.577270000000     0.353250000000     0.162050000000     0.510978   
Cd19     Cd     0.827300000000     0.890070000000     0.375130000000     0.510962   
Cd20     Cd     0.401100000000     0.853160000000     0.338270000000     0.510966   
Cd21     Cd     0.614200000000     0.816280000000     0.412090000000     0.510966   
Cd22     Cd     0.401230000000     0.353120000000     0.662090000000     0.510999   
Cd23     Cd     0.614310000000     0.316230000000     0.588210000000     0.510954   
Cd24     Cd     0.114340000000     0.640050000000     0.588240000000     0.51098    
Cd25     Cd     0.151150000000     0.566230000000     0.375140000000     0.510955   
Cd26     Cd     0.364240000000     0.640060000000     0.412080000000     0.510911   
Cd27     Cd     0.327440000000     0.566230000000     0.625170000000     0.510966   
Cd28     Cd     0.151120000000     0.890010000000     0.875170000000     0.510976   
Cd29     Cd     0.327400000000     0.390030000000     0.875160000000     0.510975   
Cd30     Cd     0.364230000000     0.816220000000     0.912110000000     0.510937   
Cd31     Cd     0.401210000000     0.603140000000     0.838270000000     0.510936   
Cd32     Cd     0.864200000000     0.140130000000     0.912040000000     0.510977   
Cd33     Cd     0.614320000000     0.640140000000     0.912020000000     0.510959   
Cd34     Cd     0.864260000000     0.816240000000     0.588200000000     0.510911   
Cd35     Cd     0.901230000000     0.603150000000     0.662010000000     0.51098    
Cd36     Cd     0.827420000000     0.566320000000     0.875110000000     0.510965   
Cd37     Cd     0.901220000000     0.353210000000     0.838210000000     0.510957   
Cd38     Cd     0.864220000000     0.316270000000     0.412030000000     0.51099    
Cd39     Cd     0.827400000000     0.390060000000     0.625120000000     0.510952   
Cd40     Cd     0.327290000000     0.890040000000     0.125180000000     0.510936   
Cd41     Cd     0.901100000000     0.103170000000     0.338210000000     0.510973   
Cd42     Cd     0.077300000000     0.103110000000     0.838270000000     0.51096    
Cd43     Cd     0.114170000000     0.140060000000     0.412110000000     0.510957   
Cd44     Cd     0.151120000000     0.066240000000     0.625180000000     0.510963   
Cd45     Cd     0.827250000000     0.066350000000     0.125130000000     0.510977   
Cd46     Cd     0.614140000000     0.140150000000     0.088220000000     0.510927   
Cd47     Cd     0.327280000000     0.066260000000     0.375180000000     0.510956   
Cd48     Cd     0.401070000000     0.103160000000     0.162090000000     0.510973   
H1       H      0.396790000000     0.097080000000     0.308530000000     0.0574052  
H2       H      0.317150000000     0.085300000000     0.278220000000     0.0572615  
H3       H      0.333120000000     0.092430000000     0.233130000000     0.0578598  
H4       H      0.412960000000     0.104060000000     0.263030000000     0.0578019  
H5       H      0.517170000000     0.121100000000     0.078140000000     0.0572831  
H6       H      0.547510000000     0.109290000000     0.157750000000     0.0574245  
H7       H      0.502020000000     0.102290000000     0.173940000000     0.0577621  
H8       H      0.472080000000     0.113940000000     0.094130000000     0.0578479  
H9       H      0.756210000000     0.134300000000     0.114380000000     0.0578599  
H10      H      0.726300000000     0.054470000000     0.126030000000     0.0578175  
H11      H      0.680800000000     0.070640000000     0.119050000000     0.0573872  
H12      H      0.711120000000     0.150270000000     0.107240000000     0.0572742  
H13      H      0.124880000000     0.072100000000     0.483140000000     0.057858   
H14      H      0.113280000000     0.151940000000     0.513040000000     0.0577822  
H15      H      0.120280000000     0.135760000000     0.558540000000     0.0574248  
H16      H      0.132030000000     0.056130000000     0.528220000000     0.0572696  
H17      H      0.211150000000     0.150170000000     0.393090000000     0.0572628  
H18      H      0.180830000000     0.070540000000     0.381280000000     0.057379   
H19      H      0.226330000000     0.054370000000     0.374290000000     0.0578181  
H20      H      0.256240000000     0.134200000000     0.385950000000     0.0578643  
H21      H      0.065420000000     0.104020000000     0.737340000000     0.0577774  
H22      H      0.145250000000     0.092380000000     0.767240000000     0.057882   
H23      H      0.161230000000     0.085260000000     0.722150000000     0.0572469  
H24      H      0.081600000000     0.097060000000     0.691840000000     0.0574127  
H25      H      0.912960000000     0.104110000000     0.237270000000     0.0578153  
H26      H      0.833130000000     0.092470000000     0.267190000000     0.0578607  
H27      H      0.817150000000     0.085370000000     0.222100000000     0.0572814  
H28      H      0.896770000000     0.097150000000     0.191780000000     0.0574099  
H29      H      0.972100000000     0.113920000000     0.406180000000     0.057867   
H30      H      0.002050000000     0.102240000000     0.326380000000     0.0577981  
H31      H      0.047540000000     0.109210000000     0.342580000000     0.0574165  
H32      H      0.017190000000     0.121050000000     0.422180000000     0.0572889  
H33      H      0.315400000000     0.990990000000     0.124270000000     0.0578148  
H34      H      0.395230000000     0.961090000000     0.135940000000     0.0578638  
H35      H      0.411200000000     0.006180000000     0.143080000000     0.0572488  
H36      H      0.331570000000     0.036490000000     0.131250000000     0.057373   
H37      H      0.863260000000     0.215320000000     0.423890000000     0.0578087  
H38      H      0.874970000000     0.245230000000     0.344080000000     0.0578978  
H39      H      0.882090000000     0.200150000000     0.328100000000     0.0572374  
H40      H      0.870240000000     0.169820000000     0.407710000000     0.0573816  
H41      H      0.853520000000     0.384210000000     0.483070000000     0.0578665  
H42      H      0.865160000000     0.304370000000     0.512960000000     0.0577871  
H43      H      0.858210000000     0.320550000000     0.558460000000     0.0574175  
H44      H      0.846420000000     0.400180000000     0.528160000000     0.0572784  
H45      H      0.913100000000     0.352280000000     0.737280000000     0.0578132  
H46      H      0.833270000000     0.363910000000     0.767180000000     0.0578638  
H47      H      0.817290000000     0.371020000000     0.722090000000     0.0572617  
H48      H      0.896920000000     0.359250000000     0.691780000000     0.057412   
H49      H      0.895370000000     0.495280000000     0.864350000000     0.0578531  
H50      H      0.815540000000     0.465370000000     0.876020000000     0.057798   
H51      H      0.831720000000     0.419870000000     0.869040000000     0.057418   
H52      H      0.911340000000     0.450190000000     0.857220000000     0.0572804  
H53      H      0.833280000000     0.592450000000     0.733050000000     0.0578564  
H54      H      0.913110000000     0.604090000000     0.762950000000     0.0578055  
H55      H      0.896930000000     0.597130000000     0.808450000000     0.057413   
H56      H      0.817300000000     0.585330000000     0.778140000000     0.0572557  
H57      H      0.831710000000     0.536500000000     0.631200000000     0.0574175  
H58      H      0.911340000000     0.506180000000     0.642980000000     0.0572504  
H59      H      0.895360000000     0.461090000000     0.635850000000     0.0578574  
H60      H      0.815530000000     0.491000000000     0.624220000000     0.0577687  
H61      H      0.875010000000     0.745200000000     0.656140000000     0.0578838  
H62      H      0.863400000000     0.715290000000     0.576320000000     0.0578077  
H63      H      0.870400000000     0.669800000000     0.592490000000     0.0574082  
H64      H      0.882160000000     0.700120000000     0.672120000000     0.0572485  
H65      H      0.711300000000     0.650250000000     0.892990000000     0.0572316  
H66      H      0.680970000000     0.570620000000     0.881180000000     0.057365   
H67      H      0.726470000000     0.554450000000     0.874200000000     0.0578149  
H68      H      0.756390000000     0.634270000000     0.885850000000     0.0578739  
H69      H      0.853450000000     0.072200000000     0.983080000000     0.0578607  
H70      H      0.865080000000     0.152030000000     0.012980000000     0.0578078  
H71      H      0.858090000000     0.135860000000     0.058480000000     0.0574063  
H72      H      0.846300000000     0.056230000000     0.028170000000     0.057284   
H73      H      0.863350000000     0.241080000000     0.923910000000     0.0577936  
H74      H      0.874980000000     0.211160000000     0.844090000000     0.0578687  
H75      H      0.882140000000     0.256240000000     0.828110000000     0.0572729  
H76      H      0.870360000000     0.286570000000     0.907730000000     0.0574065  
H77      H      0.930860000000     0.109260000000     0.842550000000     0.0573793  
H78      H      0.961170000000     0.121050000000     0.922170000000     0.0572593  
H79      H      0.006260000000     0.113890000000     0.906210000000     0.0578373  
H80      H      0.976360000000     0.102250000000     0.826380000000     0.0578362  
H81      H      0.472270000000     0.613890000000     0.906190000000     0.0578798  
H82      H      0.502150000000     0.602290000000     0.826360000000     0.0578018  
H83      H      0.547650000000     0.609290000000     0.842520000000     0.0574028  
H84      H      0.517360000000     0.621040000000     0.922150000000     0.0572578  
H85      H      0.365110000000     0.804340000000     0.013050000000     0.0578123  
H86      H      0.353500000000     0.884170000000     0.983140000000     0.0578924  
H87      H      0.346360000000     0.900150000000     0.028220000000     0.0572299  
H88      H      0.358120000000     0.820520000000     0.058540000000     0.0573982  
H89      H      0.374970000000     0.745190000000     0.844150000000     0.0578714  
H90      H      0.363390000000     0.715270000000     0.923980000000     0.0578114  
H91      H      0.370390000000     0.669780000000     0.907800000000     0.0574067  
H92      H      0.382120000000     0.700100000000     0.828170000000     0.0572466  
H93      H      0.395360000000     0.461070000000     0.864430000000     0.0578541  
H94      H      0.315520000000     0.490980000000     0.876050000000     0.0577726  
H95      H      0.331700000000     0.536480000000     0.869070000000     0.057428   
H96      H      0.411330000000     0.506160000000     0.857300000000     0.0572847  
H97      H      0.083160000000     0.961040000000     0.864400000000     0.0578486  
H98      H      0.162990000000     0.990950000000     0.876080000000     0.0577806  
H99      H      0.146810000000     0.036450000000     0.869110000000     0.0574192  
H100     H      0.067190000000     0.006130000000     0.857280000000     0.0572682  
H101     H      0.252070000000     0.901880000000     0.874260000000     0.0578027  
H102     H      0.222160000000     0.822060000000     0.885970000000     0.0578717  
H103     H      0.267250000000     0.806090000000     0.893110000000     0.0572657  
H104     H      0.297570000000     0.885710000000     0.881250000000     0.0573986  
H105     H      0.317310000000     0.585280000000     0.722130000000     0.0572521  
H106     H      0.396950000000     0.597060000000     0.691830000000     0.057387   
H107     H      0.413110000000     0.604040000000     0.737330000000     0.0578276  
H108     H      0.333270000000     0.592410000000     0.767220000000     0.0578924  
H109     H      0.353570000000     0.572100000000     0.483110000000     0.0578795  
H110     H      0.365190000000     0.651930000000     0.513020000000     0.0577873  
H111     H      0.358240000000     0.635750000000     0.558510000000     0.0573952  
H112     H      0.346460000000     0.556110000000     0.528200000000     0.0572567  
H113     H      0.252090000000     0.554360000000     0.374240000000     0.0577976  
H114     H      0.222180000000     0.634190000000     0.385890000000     0.0578468  
H115     H      0.267270000000     0.650160000000     0.393040000000     0.0572847  
H116     H      0.297590000000     0.570540000000     0.381240000000     0.05742    
H117     H      0.125050000000     0.572100000000     0.517200000000     0.057868   
H118     H      0.113410000000     0.651930000000     0.487300000000     0.0577585  
H119     H      0.120360000000     0.635750000000     0.441800000000     0.0574236  
H120     H      0.132150000000     0.556120000000     0.472110000000     0.0572678  
H121     H      0.047680000000     0.609210000000     0.657740000000     0.0573797  
H122     H      0.017370000000     0.621010000000     0.578110000000     0.0572518  
H123     H      0.972280000000     0.613880000000     0.594080000000     0.0578876  
H124     H      0.002170000000     0.602240000000     0.673900000000     0.0578045  
H125     H      0.180990000000     0.570540000000     0.619080000000     0.0573974  
H126     H      0.211320000000     0.650160000000     0.607270000000     0.057227   
H127     H      0.256410000000     0.634180000000     0.614410000000     0.0578896  
H128     H      0.226490000000     0.554360000000     0.626070000000     0.057802   
H129     H      0.680960000000     0.385740000000     0.619050000000     0.0574018  
H130     H      0.711290000000     0.306120000000     0.607210000000     0.0572594  
H131     H      0.756380000000     0.322100000000     0.614350000000     0.0578867  
H132     H      0.726460000000     0.401920000000     0.626040000000     0.0578158  
H133     H      0.413110000000     0.352220000000     0.763020000000     0.057776   
H134     H      0.333280000000     0.363840000000     0.733120000000     0.0578921  
H135     H      0.317300000000     0.370970000000     0.778200000000     0.0572632  
H136     H      0.396930000000     0.359210000000     0.808520000000     0.0574216  
H137     H      0.472240000000     0.342380000000     0.594120000000     0.0578514  
H138     H      0.502180000000     0.354020000000     0.673930000000     0.0577904  
H139     H      0.547670000000     0.347040000000     0.657740000000     0.0574173  
H140     H      0.517330000000     0.335250000000     0.578130000000     0.057279   
H141     H      0.331730000000     0.419790000000     0.631250000000     0.0574055  
H142     H      0.411350000000     0.450100000000     0.643080000000     0.0572591  
H143     H      0.395380000000     0.495190000000     0.635940000000     0.0578826  
H144     H      0.315560000000     0.465290000000     0.624260000000     0.0578053  
H145     H      0.333150000000     0.863880000000     0.267240000000     0.0578823  
H146     H      0.412980000000     0.852250000000     0.237340000000     0.0577787  
H147     H      0.396800000000     0.859230000000     0.191840000000     0.0574224  
H148     H      0.317170000000     0.871010000000     0.222150000000     0.0572517  
H149     H      0.472130000000     0.842410000000     0.406230000000     0.0578392  
H150     H      0.502040000000     0.854100000000     0.326410000000     0.0577937  
H151     H      0.547540000000     0.847120000000     0.342590000000     0.0574132  
H152     H      0.517220000000     0.835290000000     0.422200000000     0.0572642  
H153     H      0.382080000000     0.756190000000     0.328160000000     0.0572105  
H154     H      0.370270000000     0.786500000000     0.407780000000     0.0573859  
H155     H      0.363300000000     0.741000000000     0.423960000000     0.0578174  
H156     H      0.374960000000     0.711100000000     0.344140000000     0.0579083  
H157     H      0.411210000000     0.950130000000     0.357310000000     0.0572433  
H158     H      0.331580000000     0.919810000000     0.369100000000     0.0573846  
H159     H      0.315400000000     0.965310000000     0.376080000000     0.0578095  
H160     H      0.395230000000     0.995220000000     0.364440000000     0.0578533  
H161     H      0.815420000000     0.991010000000     0.376050000000     0.0578208  
H162     H      0.895240000000     0.961110000000     0.364360000000     0.0579074  
H163     H      0.911210000000     0.006200000000     0.357220000000     0.0572519  
H164     H      0.831590000000     0.036510000000     0.369070000000     0.0573762  
H165     H      0.756260000000     0.822130000000     0.385880000000     0.0578552  
H166     H      0.726360000000     0.901960000000     0.374280000000     0.0577987  
H167     H      0.680860000000     0.885790000000     0.381270000000     0.0574151  
H168     H      0.711170000000     0.806160000000     0.393030000000     0.0572796  
H169     H      0.846400000000     0.900180000000     0.472090000000     0.0572374  
H170     H      0.858130000000     0.820540000000     0.441770000000     0.0573861  
H171     H      0.865120000000     0.804360000000     0.487260000000     0.0577974  
H172     H      0.853550000000     0.884200000000     0.517170000000     0.0578743  
H173     H      0.608070000000     0.286590000000     0.092530000000     0.0573996  
H174     H      0.596310000000     0.256280000000     0.172150000000     0.0572628  
H175     H      0.603430000000     0.211190000000     0.156170000000     0.0578807  
H176     H      0.615040000000     0.241100000000     0.076350000000     0.0578118  
H177     H      0.662980000000     0.465390000000     0.124230000000     0.0578338  
H178     H      0.583160000000     0.495310000000     0.135870000000     0.0578994  
H179     H      0.567170000000     0.450220000000     0.143010000000     0.0572314  
H180     H      0.646800000000     0.419890000000     0.131220000000     0.0573605  
H181     H      0.632120000000     0.556210000000     0.028150000000     0.0572429  
H182     H      0.620320000000     0.635840000000     0.058450000000     0.0574312  
H183     H      0.613370000000     0.652020000000     0.012950000000     0.0577686  
H184     H      0.625020000000     0.572190000000     0.983060000000     0.057892   
H185     H      0.722160000000     0.322140000000     0.385840000000     0.0578866  
H186     H      0.752070000000     0.401970000000     0.374230000000     0.057819   
H187     H      0.797570000000     0.385790000000     0.381210000000     0.0573898  
H188     H      0.767250000000     0.306160000000     0.392970000000     0.0572433  
H189     H      0.620330000000     0.320560000000     0.441770000000     0.0574029  
H190     H      0.632090000000     0.400190000000     0.472100000000     0.0572517  
H191     H      0.624990000000     0.384200000000     0.517190000000     0.0578559  
H192     H      0.613380000000     0.304370000000     0.487270000000     0.0577889  
H193     H      0.661220000000     0.371060000000     0.278160000000     0.0572484  
H194     H      0.581590000000     0.359310000000     0.308480000000     0.0574182  
H195     H      0.565400000000     0.352350000000     0.262990000000     0.0577821  
H196     H      0.645240000000     0.363940000000     0.233080000000     0.0578707  
H197     H      0.506310000000     0.613920000000     0.406180000000     0.0578751  
H198     H      0.476380000000     0.602270000000     0.326360000000     0.0578057  
H199     H      0.430880000000     0.609240000000     0.342550000000     0.0573907  
H200     H      0.461220000000     0.621050000000     0.422160000000     0.0572602  
H201     H      0.565440000000     0.604120000000     0.237280000000     0.0578005  
H202     H      0.645280000000     0.592510000000     0.267170000000     0.0578847  
H203     H      0.661250000000     0.585390000000     0.222080000000     0.0572514  
H204     H      0.581610000000     0.597160000000     0.191780000000     0.0574194  
H205     H      0.646840000000     0.536540000000     0.369030000000     0.0574278  
H206     H      0.567210000000     0.506230000000     0.357250000000     0.0572799  
H207     H      0.583180000000     0.461140000000     0.364400000000     0.0578662  
H208     H      0.663020000000     0.491040000000     0.376020000000     0.0577749  
H209     H      0.608160000000     0.669830000000     0.407740000000     0.0573771  
H210     H      0.596340000000     0.700180000000     0.328130000000     0.0572574  
H211     H      0.603460000000     0.745260000000     0.344120000000     0.0578715  
H212     H      0.615130000000     0.715330000000     0.423930000000     0.0578145  
H213     H      0.833130000000     0.863950000000     0.233070000000     0.0578795  
H214     H      0.912970000000     0.852310000000     0.262950000000     0.0577978  
H215     H      0.896800000000     0.859270000000     0.308460000000     0.0574019  
H216     H      0.817160000000     0.871060000000     0.278170000000     0.0572453  
H217     H      0.911180000000     0.950220000000     0.142990000000     0.057264   
H218     H      0.831550000000     0.919900000000     0.131210000000     0.0573966  
H219     H      0.815370000000     0.965400000000     0.124230000000     0.0577764  
H220     H      0.895200000000     0.995310000000     0.135860000000     0.0578871  
H221     H      0.476360000000     0.854100000000     0.826410000000     0.0577934  
H222     H      0.506290000000     0.842430000000     0.906220000000     0.0578671  
H223     H      0.461200000000     0.835280000000     0.922200000000     0.0572671  
H224     H      0.430860000000     0.847090000000     0.842600000000     0.0574124  
H225     H      0.596370000000     0.756270000000     0.828130000000     0.0572706  
H226     H      0.608200000000     0.786570000000     0.907750000000     0.0574148  
H227     H      0.615200000000     0.741070000000     0.923910000000     0.0577878  
H228     H      0.603530000000     0.711180000000     0.844090000000     0.0578608  
H229     H      0.722200000000     0.822090000000     0.614410000000     0.0578616  
H230     H      0.752110000000     0.901920000000     0.626050000000     0.0578121  
H231     H      0.797610000000     0.885740000000     0.619050000000     0.0573945  
H232     H      0.767290000000     0.806120000000     0.607250000000     0.0572706  
H233     H      0.620320000000     0.820540000000     0.558520000000     0.0574122  
H234     H      0.632080000000     0.900170000000     0.528220000000     0.0572692  
H235     H      0.624930000000     0.884210000000     0.483140000000     0.0578671  
H236     H      0.613330000000     0.804370000000     0.513020000000     0.0578081  
H237     H      0.661260000000     0.871060000000     0.722150000000     0.0572352  
H238     H      0.581640000000     0.859230000000     0.691820000000     0.0573827  
H239     H      0.565450000000     0.852280000000     0.737320000000     0.0578204  
H240     H      0.645270000000     0.863950000000     0.767240000000     0.0578869  
H241     H      0.976400000000     0.854030000000     0.673910000000     0.0578262  
H242     H      0.006330000000     0.842370000000     0.594100000000     0.0578423  
H243     H      0.961240000000     0.835250000000     0.578110000000     0.0572739  
H244     H      0.930900000000     0.847060000000     0.657720000000     0.0573905  
H245     H      0.145290000000     0.863850000000     0.733110000000     0.0578526  
H246     H      0.065460000000     0.852190000000     0.763000000000     0.0577873  
H247     H      0.081630000000     0.859160000000     0.808500000000     0.0574095  
H248     H      0.161260000000     0.870980000000     0.778200000000     0.0572468  
H249     H      0.108230000000     0.786490000000     0.592560000000     0.0573913  
H250     H      0.096410000000     0.756150000000     0.672170000000     0.0572622  
H251     H      0.103570000000     0.711070000000     0.656190000000     0.0578675  
H252     H      0.115240000000     0.740990000000     0.576380000000     0.0577994  
H253     H      0.067220000000     0.950100000000     0.643070000000     0.0572517  
H254     H      0.146850000000     0.919800000000     0.631230000000     0.0573886  
H255     H      0.163010000000     0.965300000000     0.624260000000     0.0577906  
H256     H      0.083180000000     0.995190000000     0.635940000000     0.057859   
H257     H      0.365090000000     0.151940000000     0.487330000000     0.0578072  
H258     H      0.353480000000     0.072100000000     0.517230000000     0.057855   
H259     H      0.346340000000     0.056130000000     0.472140000000     0.0572651  
H260     H      0.358110000000     0.135770000000     0.441840000000     0.0574094  
H261     H      0.375020000000     0.211070000000     0.656220000000     0.0578609  
H262     H      0.363340000000     0.240990000000     0.576410000000     0.0578376  
H263     H      0.370350000000     0.286490000000     0.592580000000     0.0573739  
H264     H      0.382180000000     0.256150000000     0.672190000000     0.057243   
H265     H      0.222160000000     0.134190000000     0.614440000000     0.0578945  
H266     H      0.252060000000     0.054360000000     0.626080000000     0.0577845  
H267     H      0.297560000000     0.070540000000     0.619100000000     0.057418   
H268     H      0.267250000000     0.150170000000     0.607310000000     0.0572336  
H269     H      0.476400000000     0.102230000000     0.673920000000     0.0578083  
H270     H      0.506290000000     0.113880000000     0.594090000000     0.0578685  
H271     H      0.461190000000     0.121010000000     0.578130000000     0.0572612  
H272     H      0.430890000000     0.109200000000     0.657760000000     0.057389   
H273     H      0.646860000000     0.036490000000     0.631230000000     0.0573961  
H274     H      0.567230000000     0.006170000000     0.643020000000     0.0572439  
H275     H      0.583210000000     0.961080000000     0.635900000000     0.0578716  
H276     H      0.663040000000     0.990990000000     0.624260000000     0.057816   
H277     H      0.608170000000     0.169790000000     0.592500000000     0.0574056  
H278     H      0.596440000000     0.200110000000     0.672130000000     0.057225   
H279     H      0.603590000000     0.245190000000     0.656150000000     0.0579115  
H280     H      0.615170000000     0.215280000000     0.576320000000     0.0577845  
H281     H      0.722130000000     0.134290000000     0.885900000000     0.0578579  
H282     H      0.752030000000     0.054460000000     0.874250000000     0.0578098  
H283     H      0.797530000000     0.070640000000     0.881220000000     0.0574227  
H284     H      0.767230000000     0.150260000000     0.893030000000     0.0572717  
H285     H      0.662960000000     0.965400000000     0.876110000000     0.0577691  
H286     H      0.583140000000     0.995300000000     0.864370000000     0.0578481  
H287     H      0.567170000000     0.950210000000     0.857240000000     0.0572352  
H288     H      0.646790000000     0.919900000000     0.869130000000     0.057414   
H289     H      0.565440000000     0.104110000000     0.762960000000     0.0578075  
H290     H      0.645270000000     0.092440000000     0.733090000000     0.0578771  
H291     H      0.661230000000     0.085340000000     0.778180000000     0.0572561  
H292     H      0.581600000000     0.097160000000     0.808470000000     0.0573855  
H293     H      0.632000000000     0.056230000000     0.972100000000     0.0572966  
H294     H      0.620240000000     0.135860000000     0.941790000000     0.0574379  
H295     H      0.613250000000     0.152040000000     0.987290000000     0.0577636  
H296     H      0.624860000000     0.072200000000     0.017190000000     0.0578464  
H297     H      0.858220000000     0.635840000000     0.941760000000     0.0573826  
H298     H      0.846440000000     0.556210000000     0.972070000000     0.0572404  
H299     H      0.853540000000     0.572190000000     0.017160000000     0.0578782  
H300     H      0.865170000000     0.652020000000     0.987260000000     0.0578235  
H301     H      0.874900000000     0.711190000000     0.156150000000     0.0578768  
H302     H      0.863320000000     0.741100000000     0.076320000000     0.0578222  
H303     H      0.870280000000     0.786600000000     0.092500000000     0.0573876  
H304     H      0.882020000000     0.756280000000     0.172130000000     0.0572426  
H305     H      0.797560000000     0.570640000000     0.119030000000     0.0574251  
H306     H      0.767240000000     0.650260000000     0.107190000000     0.0572754  
H307     H      0.722150000000     0.634280000000     0.114340000000     0.0578645  
H308     H      0.752060000000     0.554460000000     0.126030000000     0.0577662  
H309     H      0.363250000000     0.215310000000     0.076410000000     0.0578095  
H310     H      0.374920000000     0.245220000000     0.156230000000     0.0578671  
H311     H      0.382040000000     0.200130000000     0.172210000000     0.0572322  
H312     H      0.370220000000     0.169810000000     0.092590000000     0.0574037  
H313     H      0.346380000000     0.400160000000     0.972130000000     0.0572704  
H314     H      0.358210000000     0.320530000000     0.941830000000     0.0573899  
H315     H      0.365150000000     0.304360000000     0.987340000000     0.0578061  
H316     H      0.353470000000     0.384190000000     0.017230000000     0.0578526  
H317     H      0.430830000000     0.347110000000     0.157780000000     0.0574111  
H318     H      0.461140000000     0.335330000000     0.078150000000     0.0572904  
H319     H      0.506230000000     0.342500000000     0.094120000000     0.0578403  
H320     H      0.476330000000     0.354120000000     0.173950000000     0.057769   
H321     H      0.006280000000     0.342420000000     0.406170000000     0.0578161  
H322     H      0.976380000000     0.354060000000     0.326340000000     0.0577738  
H323     H      0.930880000000     0.347080000000     0.342520000000     0.0574305  
H324     H      0.961190000000     0.335290000000     0.422140000000     0.057283   
H325     H      0.067220000000     0.450100000000     0.357300000000     0.0572498  
H326     H      0.146860000000     0.419790000000     0.369020000000     0.0573936  
H327     H      0.163040000000     0.465290000000     0.376000000000     0.0577915  
H328     H      0.083190000000     0.495190000000     0.364440000000     0.0578847  
H329     H      0.096360000000     0.256160000000     0.328150000000     0.0572738  
H330     H      0.108120000000     0.286500000000     0.407770000000     0.0573939  
H331     H      0.115080000000     0.241000000000     0.423960000000     0.0577835  
H332     H      0.103480000000     0.211080000000     0.344140000000     0.0578645  
H333     H      0.145250000000     0.592450000000     0.233100000000     0.0578686  
H334     H      0.065420000000     0.604030000000     0.263020000000     0.0578102  
H335     H      0.081610000000     0.597050000000     0.308510000000     0.0574087  
H336     H      0.161240000000     0.585310000000     0.278180000000     0.0572649  
H337     H      0.976330000000     0.602300000000     0.173920000000     0.057816   
H338     H      0.006270000000     0.613940000000     0.094110000000     0.0578356  
H339     H      0.961190000000     0.621100000000     0.078130000000     0.0572842  
H340     H      0.930840000000     0.609300000000     0.157730000000     0.0574157  
H341     H      0.113280000000     0.804350000000     0.987330000000     0.0578093  
H342     H      0.124930000000     0.884190000000     0.017210000000     0.057876   
H343     H      0.132070000000     0.900150000000     0.972120000000     0.0572534  
H344     H      0.120270000000     0.820510000000     0.941830000000     0.0573858  
H345     H      0.103400000000     0.745230000000     0.156220000000     0.0578349  
H346     H      0.115110000000     0.715320000000     0.076410000000     0.0577842  
H347     H      0.108140000000     0.669820000000     0.092580000000     0.0574172  
H348     H      0.096280000000     0.700140000000     0.172190000000     0.0572707  
H349     H      0.211150000000     0.806130000000     0.107310000000     0.0572225  
H350     H      0.180850000000     0.885770000000     0.119090000000     0.0573735  
H351     H      0.226350000000     0.901940000000     0.126070000000     0.057835   
H352     H      0.256240000000     0.822100000000     0.114450000000     0.0578999  
H353     H      0.002020000000     0.854140000000     0.173920000000     0.0577812  
H354     H      0.972120000000     0.842490000000     0.094090000000     0.0578538  
H355     H      0.017210000000     0.835330000000     0.078130000000     0.0572574  
H356     H      0.047520000000     0.847140000000     0.157750000000     0.0574082  
H357     H      0.252020000000     0.401940000000     0.126060000000     0.0578027  
H358     H      0.222110000000     0.322120000000     0.114390000000     0.0578765  
H359     H      0.267200000000     0.306140000000     0.107270000000     0.0572634  
H360     H      0.297520000000     0.385760000000     0.119090000000     0.0574098  
H361     H      0.162950000000     0.491010000000     0.124230000000     0.0578173  
H362     H      0.083120000000     0.461100000000     0.135900000000     0.0578645  
H363     H      0.067150000000     0.506190000000     0.143050000000     0.0572352  
H364     H      0.146780000000     0.536510000000     0.131220000000     0.0573715  
H365     H      0.065410000000     0.352250000000     0.237300000000     0.05781    
H366     H      0.145260000000     0.363850000000     0.267180000000     0.0578761  
H367     H      0.161220000000     0.370990000000     0.222080000000     0.0572463  
H368     H      0.081570000000     0.359240000000     0.191800000000     0.0573924  
H369     H      0.103550000000     0.245160000000     0.844110000000     0.0578709  
H370     H      0.115160000000     0.215260000000     0.923940000000     0.0577886  
H371     H      0.108150000000     0.169770000000     0.907780000000     0.0574054  
H372     H      0.096400000000     0.200070000000     0.828150000000     0.0572595  
H373     H      0.124980000000     0.384180000000     0.983070000000     0.0578397  
H374     H      0.113340000000     0.304350000000     0.012990000000     0.057772   
H375     H      0.120280000000     0.320540000000     0.058480000000     0.0574217  
H376     H      0.132070000000     0.400160000000     0.028160000000     0.0572877  
H377     H      0.047660000000     0.347050000000     0.842520000000     0.0574059  
H378     H      0.017330000000     0.335290000000     0.922140000000     0.0572787  
H379     H      0.972250000000     0.342450000000     0.906160000000     0.0578721  
H380     H      0.002170000000     0.354060000000     0.826340000000     0.057794   
H381     H      0.180950000000     0.385710000000     0.881200000000     0.0574038  
H382     H      0.211280000000     0.306100000000     0.893070000000     0.0572671  
H383     H      0.256370000000     0.322080000000     0.885930000000     0.0578604  
H384     H      0.226450000000     0.401890000000     0.874220000000     0.0577921  
O1       O      0.114520000000     0.308810000000     0.960940000000    -0.22447    
O2       O      0.083700000000     0.336990000000     0.879170000000    -0.226209   
O3       O      0.114040000000     0.267310000000     0.919460000000    -0.224388   
O4       O      0.162200000000     0.312420000000     0.905140000000    -0.235175   
O5       O      0.144920000000     0.349070000000     0.891260000000    -0.22629    
O6       O      0.111560000000     0.280940000000     0.878900000000    -0.233549   
O7       O      0.117010000000     0.349370000000     0.947300000000    -0.233586   
O8       O      0.066400000000     0.323160000000     0.915830000000    -0.235121   
O9       O      0.158480000000     0.438960000000     0.125380000000    -0.224394   
O10      O      0.118210000000     0.369280000000     0.155750000000    -0.226238   
O11      O      0.199970000000     0.397470000000     0.124890000000    -0.224362   
O12      O      0.144150000000     0.393850000000     0.077240000000    -0.235214   
O13      O      0.130300000000     0.357190000000     0.094520000000    -0.226235   
O14      O      0.186330000000     0.356910000000     0.122400000000    -0.233431   
O15      O      0.117920000000     0.425320000000     0.127870000000    -0.233495   
O16      O      0.154880000000     0.383110000000     0.173020000000    -0.235122   
O17      O      0.113940000000     0.767360000000     0.080870000000    -0.22441    
O18      O      0.083560000000     0.837060000000     0.121120000000    -0.226244   
O19      O      0.114420000000     0.808840000000     0.039370000000    -0.224379   
O20      O      0.162070000000     0.812460000000     0.095210000000    -0.23514    
O21      O      0.144800000000     0.849130000000     0.109040000000    -0.226248   
O22      O      0.116920000000     0.849410000000     0.053000000000    -0.23347    
O23      O      0.111430000000     0.781010000000     0.121420000000    -0.233535   
O24      O      0.066280000000     0.823210000000     0.084460000000    -0.235133   
O25      O      0.069880000000     0.602900000000     0.210980000000    -0.224413   
O26      O      0.098080000000     0.633780000000     0.129220000000    -0.226262   
O27      O      0.028380000000     0.603430000000     0.169470000000    -0.224498   
O28      O      0.073480000000     0.555270000000     0.155140000000    -0.235224   
O29      O      0.110140000000     0.572550000000     0.141280000000    -0.226245   
O30      O      0.042030000000     0.605900000000     0.128920000000    -0.23367    
O31      O      0.110440000000     0.600450000000     0.197330000000    -0.233656   
O32      O      0.084210000000     0.651060000000     0.165870000000    -0.235196   
O33      O      0.028430000000     0.352900000000     0.330820000000    -0.224414   
O34      O      0.073530000000     0.401040000000     0.345180000000    -0.235044   
O35      O      0.069900000000     0.353390000000     0.289340000000    -0.224439   
O36      O      0.098090000000     0.322530000000     0.371110000000    -0.226203   
O37      O      0.084260000000     0.305240000000     0.334450000000    -0.235105   
O38      O      0.110470000000     0.355860000000     0.302960000000    -0.233571   
O39      O      0.042060000000     0.350420000000     0.371380000000    -0.233559   
O40      O      0.110210000000     0.383750000000     0.358990000000    -0.226139   
O41      O      0.363970000000     0.308840000000     0.039380000000    -0.22442    
O42      O      0.394790000000     0.337040000000     0.121140000000    -0.226291   
O43      O      0.364410000000     0.267350000000     0.080870000000    -0.224371   
O44      O      0.316280000000     0.312460000000     0.095190000000    -0.235111   
O45      O      0.333560000000     0.349120000000     0.109040000000    -0.2263     
O46      O      0.366920000000     0.281000000000     0.121430000000    -0.233454   
O47      O      0.361460000000     0.349400000000     0.053010000000    -0.233555   
O48      O      0.412080000000     0.323200000000     0.084480000000    -0.235096   
O49      O      0.864000000000     0.647550000000     0.039300000000    -0.224487   
O50      O      0.833600000000     0.607290000000     0.108970000000    -0.226314   
O51      O      0.864460000000     0.689050000000     0.080790000000    -0.224418   
O52      O      0.912120000000     0.633220000000     0.084430000000    -0.235165   
O53      O      0.894810000000     0.619370000000     0.121080000000    -0.226214   
O54      O      0.866930000000     0.675410000000     0.121350000000    -0.233539   
O55      O      0.861510000000     0.607000000000     0.052940000000    -0.233674   
O56      O      0.816320000000     0.643940000000     0.095110000000    -0.235216   
O57      O      0.658490000000     0.017440000000     0.874930000000    -0.224481   
O58      O      0.654900000000     0.073270000000     0.827260000000    -0.235108   
O59      O      0.699990000000     0.058940000000     0.875400000000    -0.224452   
O60      O      0.644130000000     0.062550000000     0.923040000000    -0.235031   
O61      O      0.630300000000     0.099220000000     0.905750000000    -0.226098   
O62      O      0.686350000000     0.099500000000     0.877890000000    -0.233575   
O63      O      0.617940000000     0.031080000000     0.872400000000    -0.233686   
O64      O      0.618230000000     0.087120000000     0.844520000000    -0.226194   
O65      O      0.569920000000     0.102930000000     0.710920000000    -0.224446   
O66      O      0.598120000000     0.133750000000     0.629150000000    -0.226226   
O67      O      0.528440000000     0.103390000000     0.669440000000    -0.224374   
O68      O      0.573550000000     0.055250000000     0.655110000000    -0.235169   
O69      O      0.610210000000     0.072530000000     0.641270000000    -0.226329   
O70      O      0.542070000000     0.105880000000     0.628880000000    -0.233543   
O71      O      0.610480000000     0.100430000000     0.697300000000    -0.233652   
O72      O      0.584300000000     0.151040000000     0.665810000000    -0.23518    
O73      O      0.363960000000     0.147460000000     0.539370000000    -0.224444   
O74      O      0.333600000000     0.107180000000     0.609050000000    -0.226265   
O75      O      0.364480000000     0.188950000000     0.580870000000    -0.224479   
O76      O      0.412120000000     0.133100000000     0.584460000000    -0.235183   
O77      O      0.394840000000     0.119260000000     0.621120000000    -0.22628    
O78      O      0.366970000000     0.175300000000     0.621420000000    -0.233674   
O79      O      0.361490000000     0.106900000000     0.553010000000    -0.233574   
O80      O      0.316330000000     0.143840000000     0.595210000000    -0.235263   
O81      O      0.028450000000     0.852870000000     0.669460000000    -0.224389   
O82      O      0.098160000000     0.822520000000     0.629200000000    -0.22619    
O83      O      0.069940000000     0.853350000000     0.710960000000    -0.224442   
O84      O      0.073550000000     0.901020000000     0.655150000000    -0.235186   
O85      O      0.110210000000     0.883750000000     0.641290000000    -0.22623    
O86      O      0.110500000000     0.855850000000     0.697330000000    -0.233573   
O87      O      0.042100000000     0.850380000000     0.628900000000    -0.233446   
O88      O      0.084300000000     0.805220000000     0.665850000000    -0.235134   
O89      O      0.700060000000     0.897450000000     0.624920000000    -0.224438   
O90      O      0.630380000000     0.857170000000     0.594570000000    -0.226231   
O91      O      0.658570000000     0.938940000000     0.625420000000    -0.224445   
O92      O      0.654950000000     0.883120000000     0.673070000000    -0.235131   
O93      O      0.618290000000     0.869270000000     0.655790000000    -0.2263     
O94      O      0.618010000000     0.925300000000     0.627900000000    -0.233584   
O95      O      0.686420000000     0.856890000000     0.622440000000    -0.233591   
O96      O      0.644210000000     0.893840000000     0.577290000000    -0.235128   
O97      O      0.569910000000     0.853460000000     0.789360000000    -0.224501   
O98      O      0.598110000000     0.822620000000     0.871120000000    -0.226214   
O99      O      0.542050000000     0.850470000000     0.871420000000    -0.2337     
O100     O      0.573510000000     0.901130000000     0.845170000000    -0.235166   
O101     O      0.610160000000     0.883850000000     0.859060000000    -0.226098   
O102     O      0.528400000000     0.852970000000     0.830870000000    -0.224514   
O103     O      0.610460000000     0.855960000000     0.803010000000    -0.233658   
O104     O      0.584260000000     0.805340000000     0.834460000000    -0.235178   
O105     O      0.908480000000     0.853480000000     0.210920000000    -0.224426   
O106     O      0.880300000000     0.822640000000     0.129140000000    -0.226122   
O107     O      0.936340000000     0.850520000000     0.128880000000    -0.233607   
O108     O      0.904860000000     0.901150000000     0.155090000000    -0.235177   
O109     O      0.868200000000     0.883860000000     0.141250000000    -0.226196   
O110     O      0.949970000000     0.853000000000     0.169430000000    -0.224504   
O111     O      0.867920000000     0.855970000000     0.197280000000    -0.23357    
O112     O      0.894130000000     0.805360000000     0.165810000000    -0.23507    
O113     O      0.569910000000     0.602960000000     0.289320000000    -0.22431    
O114     O      0.610200000000     0.572580000000     0.358990000000    -0.226248   
O115     O      0.528430000000     0.603440000000     0.330820000000    -0.224424   
O116     O      0.584250000000     0.651100000000     0.334440000000    -0.23523    
O117     O      0.598110000000     0.633800000000     0.371080000000    -0.226297   
O118     O      0.542080000000     0.605920000000     0.371370000000    -0.233551   
O119     O      0.610480000000     0.600490000000     0.302950000000    -0.233531   
O120     O      0.573540000000     0.555300000000     0.345140000000    -0.235195   
O121     O      0.700020000000     0.397500000000     0.375380000000    -0.224459   
O122     O      0.618240000000     0.369330000000     0.344520000000    -0.226235   
O123     O      0.658540000000     0.438990000000     0.374880000000    -0.224315   
O124     O      0.644190000000     0.393880000000     0.423020000000    -0.235169   
O125     O      0.630350000000     0.357220000000     0.405740000000    -0.226294   
O126     O      0.617970000000     0.425360000000     0.372410000000    -0.233547   
O127     O      0.686380000000     0.356940000000     0.377840000000    -0.233575   
O128     O      0.654910000000     0.383160000000     0.327240000000    -0.235145   
O129     O      0.658520000000     0.517430000000     0.125380000000    -0.224393   
O130     O      0.630340000000     0.599200000000     0.094500000000    -0.226221   
O131     O      0.700020000000     0.558930000000     0.124880000000    -0.224462   
O132     O      0.654920000000     0.573280000000     0.173010000000    -0.235135   
O133     O      0.618250000000     0.587120000000     0.155730000000    -0.226211   
O134     O      0.686380000000     0.599490000000     0.122380000000    -0.233584   
O135     O      0.617960000000     0.531080000000     0.127850000000    -0.233647   
O136     O      0.644190000000     0.562540000000     0.077230000000    -0.235249   
O137     O      0.569870000000     0.353500000000     0.210940000000    -0.224292   
O138     O      0.610150000000     0.383860000000     0.141270000000    -0.226178   
O139     O      0.542010000000     0.350520000000     0.128910000000    -0.23364    
O140     O      0.584210000000     0.305360000000     0.165840000000    -0.235073   
O141     O      0.598040000000     0.322640000000     0.129170000000    -0.226107   
O142     O      0.528370000000     0.353000000000     0.169460000000    -0.224566   
O143     O      0.610430000000     0.355960000000     0.197300000000    -0.23349    
O144     O      0.573490000000     0.401150000000     0.155110000000    -0.235237   
O145     O      0.778400000000     0.897480000000     0.375400000000    -0.224462   
O146     O      0.848080000000     0.857190000000     0.405740000000    -0.226271   
O147     O      0.819890000000     0.938970000000     0.374900000000    -0.22444    
O148     O      0.823490000000     0.883140000000     0.327240000000    -0.235134   
O149     O      0.860160000000     0.869300000000     0.344510000000    -0.226229   
O150     O      0.860450000000     0.925330000000     0.372390000000    -0.23358    
O151     O      0.792040000000     0.856920000000     0.377870000000    -0.233599   
O152     O      0.834270000000     0.893860000000     0.423020000000    -0.235206   
O153     O      0.450000000000     0.852930000000     0.330880000000    -0.224536   
O154     O      0.380310000000     0.822540000000     0.371140000000    -0.226289   
O155     O      0.408500000000     0.853400000000     0.289380000000    -0.224466   
O156     O      0.404880000000     0.901060000000     0.345210000000    -0.235182   
O157     O      0.368220000000     0.883770000000     0.359060000000    -0.226136   
O158     O      0.367940000000     0.855880000000     0.303020000000    -0.233578   
O159     O      0.436350000000     0.850430000000     0.371430000000    -0.233513   
O160     O      0.394170000000     0.805270000000     0.334490000000    -0.23522    
O161     O      0.613960000000     0.767370000000     0.419480000000    -0.224424   
O162     O      0.644810000000     0.849150000000     0.391310000000    -0.226134   
O163     O      0.614450000000     0.808860000000     0.460980000000    -0.224407   
O164     O      0.566300000000     0.823200000000     0.415880000000    -0.23515    
O165     O      0.583580000000     0.837070000000     0.379230000000    -0.226288   
O166     O      0.616930000000     0.849420000000     0.447350000000    -0.233575   
O167     O      0.611470000000     0.781030000000     0.378930000000    -0.233547   
O168     O      0.662090000000     0.812480000000     0.405140000000    -0.235136   
O169     O      0.450130000000     0.352870000000     0.669480000000    -0.224424   
O170     O      0.368370000000     0.383740000000     0.641300000000    -0.226137   
O171     O      0.408640000000     0.353360000000     0.710980000000    -0.224355   
O172     O      0.394290000000     0.305230000000     0.665870000000    -0.235157   
O173     O      0.380430000000     0.322520000000     0.629230000000    -0.226271   
O174     O      0.368080000000     0.355850000000     0.697340000000    -0.233631   
O175     O      0.436480000000     0.350390000000     0.628930000000    -0.233551   
O176     O      0.405030000000     0.401020000000     0.655160000000    -0.235031   
O177     O      0.614550000000     0.308830000000     0.539310000000    -0.22431    
O178     O      0.644920000000     0.349090000000     0.608990000000    -0.22621    
O179     O      0.614050000000     0.267330000000     0.580800000000    -0.224426   
O180     O      0.566410000000     0.323160000000     0.584430000000    -0.235162   
O181     O      0.583700000000     0.337000000000     0.621090000000    -0.226305   
O182     O      0.611590000000     0.280970000000     0.621360000000    -0.233573   
O183     O      0.617010000000     0.349390000000     0.552960000000    -0.233514   
O184     O      0.662210000000     0.312440000000     0.595120000000    -0.235132   
O185     O      0.114580000000     0.647450000000     0.539340000000    -0.224492   
O186     O      0.083720000000     0.619260000000     0.621100000000    -0.226253   
O187     O      0.114100000000     0.688950000000     0.580840000000    -0.224405   
O188     O      0.162240000000     0.643840000000     0.595170000000    -0.235104   
O189     O      0.144960000000     0.607180000000     0.609020000000    -0.226298   
O190     O      0.111600000000     0.675300000000     0.621390000000    -0.233562   
O191     O      0.117060000000     0.606900000000     0.552980000000    -0.233673   
O192     O      0.066450000000     0.633110000000     0.584440000000    -0.235192   
O193     O      0.158560000000     0.517340000000     0.374870000000    -0.224449   
O194     O      0.118260000000     0.587010000000     0.344540000000    -0.226129   
O195     O      0.200050000000     0.558830000000     0.375380000000    -0.224465   
O196     O      0.144220000000     0.562440000000     0.423030000000    -0.235151   
O197     O      0.130380000000     0.599100000000     0.405760000000    -0.226284   
O198     O      0.186410000000     0.599390000000     0.377860000000    -0.233584   
O199     O      0.117990000000     0.530970000000     0.372430000000    -0.233497   
O200     O      0.154930000000     0.573190000000     0.327250000000    -0.235153   
O201     O      0.364470000000     0.688960000000     0.419490000000    -0.224425   
O202     O      0.333630000000     0.607180000000     0.391300000000    -0.226135   
O203     O      0.364010000000     0.647460000000     0.460980000000    -0.224461   
O204     O      0.412140000000     0.633130000000     0.415860000000    -0.235113   
O205     O      0.394850000000     0.619280000000     0.379200000000    -0.226168   
O206     O      0.361530000000     0.606900000000     0.447340000000    -0.233563   
O207     O      0.366960000000     0.675320000000     0.378930000000    -0.233578   
O208     O      0.316340000000     0.643840000000     0.405150000000    -0.235159   
O209     O      0.320030000000     0.517330000000     0.625420000000    -0.224441   
O210     O      0.360310000000     0.587010000000     0.655790000000    -0.226183   
O211     O      0.278540000000     0.558830000000     0.624920000000    -0.224473   
O212     O      0.334380000000     0.562430000000     0.577280000000    -0.235141   
O213     O      0.348220000000     0.599100000000     0.594560000000    -0.226225   
O214     O      0.292180000000     0.599380000000     0.622440000000    -0.233684   
O215     O      0.360590000000     0.530970000000     0.627910000000    -0.233582   
O216     O      0.323640000000     0.573170000000     0.673060000000    -0.235173   
O217     O      0.158520000000     0.938910000000     0.874920000000    -0.224426   
O218     O      0.130330000000     0.857150000000     0.905780000000    -0.226254   
O219     O      0.200020000000     0.897410000000     0.875410000000    -0.224427   
O220     O      0.154920000000     0.883070000000     0.827280000000    -0.235178   
O221     O      0.118260000000     0.869220000000     0.844550000000    -0.226226   
O222     O      0.186380000000     0.856850000000     0.877920000000    -0.233557   
O223     O      0.117960000000     0.925260000000     0.872420000000    -0.233483   
O224     O      0.144170000000     0.893810000000     0.923050000000    -0.235219   
O225     O      0.319990000000     0.438930000000     0.874900000000    -0.224263   
O226     O      0.360280000000     0.369250000000     0.844560000000    -0.22615    
O227     O      0.278500000000     0.397430000000     0.875390000000    -0.224433   
O228     O      0.334320000000     0.393830000000     0.923050000000    -0.235191   
O229     O      0.348180000000     0.357170000000     0.905780000000    -0.226222   
O230     O      0.292150000000     0.356880000000     0.877900000000    -0.233586   
O231     O      0.360560000000     0.425290000000     0.872440000000    -0.233417   
O232     O      0.323620000000     0.383090000000     0.827270000000    -0.235174   
O233     O      0.363980000000     0.808810000000     0.961010000000    -0.224442   
O234     O      0.333610000000     0.849080000000     0.891330000000    -0.226253   
O235     O      0.364500000000     0.767320000000     0.919510000000    -0.224423   
O236     O      0.412130000000     0.823170000000     0.915890000000    -0.235202   
O237     O      0.394830000000     0.837010000000     0.879240000000    -0.226251   
O238     O      0.366960000000     0.780960000000     0.878950000000    -0.233553   
O239     O      0.361500000000     0.849370000000     0.947370000000    -0.233574   
O240     O      0.316330000000     0.812420000000     0.905190000000    -0.235145   
O241     O      0.450110000000     0.603410000000     0.830850000000    -0.224386   
O242     O      0.368340000000     0.572520000000     0.859030000000    -0.226295   
O243     O      0.408630000000     0.602900000000     0.789370000000    -0.224431   
O244     O      0.394250000000     0.651030000000     0.834480000000    -0.235093   
O245     O      0.380440000000     0.633740000000     0.871150000000    -0.226167   
O246     O      0.368060000000     0.600420000000     0.803000000000    -0.233574   
O247     O      0.436480000000     0.605870000000     0.871410000000    -0.233556   
O248     O      0.405010000000     0.555240000000     0.845210000000    -0.235197   
O249     O      0.863950000000     0.147550000000     0.960940000000    -0.224412   
O250     O      0.894820000000     0.119340000000     0.879180000000    -0.226296   
O251     O      0.864480000000     0.189030000000     0.919440000000    -0.224462   
O252     O      0.816310000000     0.143940000000     0.905110000000    -0.235082   
O253     O      0.833580000000     0.107270000000     0.891270000000    -0.226242   
O254     O      0.866950000000     0.175390000000     0.878890000000    -0.233661   
O255     O      0.861470000000     0.106990000000     0.947300000000    -0.233576   
O256     O      0.912100000000     0.133170000000     0.915840000000    -0.235183   
O257     O      0.614550000000     0.647540000000     0.960910000000    -0.224424   
O258     O      0.644930000000     0.607270000000     0.891240000000    -0.226198   
O259     O      0.614070000000     0.689030000000     0.919430000000    -0.224408   
O260     O      0.566430000000     0.633170000000     0.915820000000    -0.235117   
O261     O      0.583710000000     0.619350000000     0.879150000000    -0.226128   
O262     O      0.611570000000     0.675400000000     0.878870000000    -0.233565   
O263     O      0.617040000000     0.606980000000     0.947280000000    -0.233534   
O264     O      0.662220000000     0.643930000000     0.905090000000    -0.235081   
O265     O      0.864000000000     0.808830000000     0.539310000000    -0.22429    
O266     O      0.894870000000     0.837020000000     0.621070000000    -0.226174   
O267     O      0.864520000000     0.767340000000     0.580790000000    -0.224414   
O268     O      0.816360000000     0.812440000000     0.595150000000    -0.235099   
O269     O      0.833650000000     0.849110000000     0.608990000000    -0.226136   
O270     O      0.866990000000     0.780980000000     0.621350000000    -0.233554   
O271     O      0.861540000000     0.849400000000     0.552940000000    -0.233509   
O272     O      0.912160000000     0.823170000000     0.584410000000    -0.235042   
O273     O      0.950130000000     0.603390000000     0.669420000000    -0.224511   
O274     O      0.880450000000     0.633760000000     0.629140000000    -0.226323   
O275     O      0.908640000000     0.602920000000     0.710910000000    -0.224445   
O276     O      0.905020000000     0.555260000000     0.655080000000    -0.235116   
O277     O      0.868360000000     0.572540000000     0.641240000000    -0.226203   
O278     O      0.868080000000     0.600430000000     0.697270000000    -0.233583   
O279     O      0.936500000000     0.605880000000     0.628870000000    -0.233605   
O280     O      0.894280000000     0.651050000000     0.665800000000    -0.235157   
O281     O      0.778520000000     0.558910000000     0.875350000000    -0.22433    
O282     O      0.860290000000     0.587090000000     0.844490000000    -0.226271   
O283     O      0.820010000000     0.517420000000     0.874860000000    -0.224378   
O284     O      0.834350000000     0.562530000000     0.923000000000    -0.235282   
O285     O      0.848200000000     0.599190000000     0.905720000000    -0.226265   
O286     O      0.860570000000     0.531060000000     0.872380000000    -0.233465   
O287     O      0.792160000000     0.599470000000     0.877830000000    -0.23364    
O288     O      0.823630000000     0.573250000000     0.827210000000    -0.235248   
O289     O      0.908630000000     0.353440000000     0.789320000000    -0.224503   
O290     O      0.868360000000     0.383830000000     0.858990000000    -0.22628    
O291     O      0.936480000000     0.350470000000     0.871370000000    -0.233566   
O292     O      0.880430000000     0.322610000000     0.871080000000    -0.226249   
O293     O      0.894260000000     0.305310000000     0.834430000000    -0.235236   
O294     O      0.950120000000     0.352940000000     0.830810000000    -0.224421   
O295     O      0.868070000000     0.355920000000     0.802950000000    -0.233691   
O296     O      0.905020000000     0.401110000000     0.845130000000    -0.235096   
O297     O      0.863990000000     0.308850000000     0.460920000000    -0.224449   
O298     O      0.833600000000     0.349140000000     0.391250000000    -0.22631    
O299     O      0.866950000000     0.281010000000     0.378870000000    -0.233613   
O300     O      0.912110000000     0.323190000000     0.415820000000    -0.235102   
O301     O      0.894830000000     0.337040000000     0.379160000000    -0.22628    
O302     O      0.864440000000     0.267370000000     0.419420000000    -0.224424   
O303     O      0.861500000000     0.349410000000     0.447280000000    -0.233602   
O304     O      0.816320000000     0.312480000000     0.405090000000    -0.235153   
O305     O      0.820000000000     0.438950000000     0.625370000000    -0.224418   
O306     O      0.848180000000     0.357190000000     0.594510000000    -0.226239   
O307     O      0.778500000000     0.397460000000     0.624880000000    -0.224378   
O308     O      0.823610000000     0.383120000000     0.673020000000    -0.235135   
O309     O      0.860280000000     0.369280000000     0.655740000000    -0.226206   
O310     O      0.792150000000     0.356900000000     0.622390000000    -0.233636   
O311     O      0.860560000000     0.425310000000     0.627840000000    -0.233478   
O312     O      0.834330000000     0.393850000000     0.577230000000    -0.235208   
O313     O      0.319880000000     0.938940000000     0.125430000000    -0.224413   
O314     O      0.348070000000     0.857170000000     0.094580000000    -0.226224   
O315     O      0.278390000000     0.897460000000     0.124930000000    -0.224413   
O316     O      0.323490000000     0.883100000000     0.173080000000    -0.235123   
O317     O      0.360160000000     0.869270000000     0.155800000000    -0.226238   
O318     O      0.292030000000     0.856890000000     0.122460000000    -0.233501   
O319     O      0.360440000000     0.925310000000     0.127920000000    -0.233558   
O320     O      0.334240000000     0.893830000000     0.077290000000    -0.235138   
O321     O      0.908500000000     0.102940000000     0.289320000000    -0.224355   
O322     O      0.880300000000     0.133780000000     0.371070000000    -0.226194   
O323     O      0.950000000000     0.103410000000     0.330830000000    -0.224452   
O324     O      0.904880000000     0.055270000000     0.345130000000    -0.235275   
O325     O      0.868230000000     0.072550000000     0.359000000000    -0.226249   
O326     O      0.936340000000     0.105900000000     0.371380000000    -0.233568   
O327     O      0.867940000000     0.100450000000     0.302960000000    -0.233611   
O328     O      0.894180000000     0.151070000000     0.334430000000    -0.235184   
O329     O      0.069900000000     0.102870000000     0.789380000000    -0.224388   
O330     O      0.110170000000     0.072490000000     0.859050000000    -0.226252   
O331     O      0.028400000000     0.103380000000     0.830860000000    -0.224427   
O332     O      0.084270000000     0.151000000000     0.834480000000    -0.235256   
O333     O      0.098090000000     0.133720000000     0.871140000000    -0.22629    
O334     O      0.042040000000     0.105850000000     0.871420000000    -0.233572   
O335     O      0.110460000000     0.100380000000     0.803020000000    -0.233439   
O336     O      0.073510000000     0.055210000000     0.845200000000    -0.23521    
O337     O      0.114420000000     0.147460000000     0.461000000000    -0.224473   
O338     O      0.144790000000     0.107190000000     0.391330000000    -0.226279   
O339     O      0.113920000000     0.188960000000     0.419500000000    -0.22452    
O340     O      0.066270000000     0.133130000000     0.415880000000    -0.235183   
O341     O      0.083570000000     0.119270000000     0.379230000000    -0.226174   
O342     O      0.111460000000     0.175310000000     0.378950000000    -0.233679   
O343     O      0.116890000000     0.106900000000     0.447360000000    -0.233572   
O344     O      0.162070000000     0.143850000000     0.405180000000    -0.2351     
O345     O      0.200010000000     0.058840000000     0.624930000000    -0.22439    
O346     O      0.118240000000     0.087020000000     0.655800000000    -0.226195   
O347     O      0.158530000000     0.017350000000     0.625420000000    -0.224425   
O348     O      0.144160000000     0.062450000000     0.577290000000    -0.235091   
O349     O      0.130330000000     0.099120000000     0.594570000000    -0.226222   
O350     O      0.117970000000     0.030980000000     0.627920000000    -0.233569   
O351     O      0.186370000000     0.099400000000     0.622450000000    -0.233461   
O352     O      0.154910000000     0.073180000000     0.673070000000    -0.235125   
O353     O      0.778350000000     0.058940000000     0.124880000000    -0.224436   
O354     O      0.848030000000     0.099220000000     0.094520000000    -0.226208   
O355     O      0.819840000000     0.017450000000     0.125370000000    -0.224331   
O356     O      0.823460000000     0.073280000000     0.173020000000    -0.235167   
O357     O      0.860120000000     0.087120000000     0.155740000000    -0.226304   
O358     O      0.860400000000     0.031090000000     0.127850000000    -0.233625   
O359     O      0.791990000000     0.099500000000     0.122400000000    -0.233589   
O360     O      0.834190000000     0.062550000000     0.077240000000    -0.235065   
O361     O      0.614380000000     0.147560000000     0.039330000000    -0.224429   
O362     O      0.583540000000     0.119360000000     0.121100000000    -0.226211   
O363     O      0.613890000000     0.189050000000     0.080820000000    -0.224421   
O364     O      0.662040000000     0.143950000000     0.095150000000    -0.235075   
O365     O      0.644760000000     0.107280000000     0.109000000000    -0.226213   
O366     O      0.611420000000     0.175410000000     0.121380000000    -0.233551   
O367     O      0.616860000000     0.107000000000     0.052960000000    -0.23357    
O368     O      0.566240000000     0.133210000000     0.084450000000    -0.235192   
O369     O      0.278380000000     0.058850000000     0.375440000000    -0.224436   
O370     O      0.360150000000     0.087040000000     0.344570000000    -0.226228   
O371     O      0.319870000000     0.017360000000     0.374940000000    -0.224434   
O372     O      0.334230000000     0.062460000000     0.423070000000    -0.235125   
O373     O      0.348060000000     0.099130000000     0.405790000000    -0.226227   
O374     O      0.360430000000     0.031000000000     0.372450000000    -0.233585   
O375     O      0.292020000000     0.099410000000     0.377920000000    -0.233593   
O376     O      0.323480000000     0.073200000000     0.327290000000    -0.235146   
O377     O      0.408480000000     0.102910000000     0.210990000000    -0.224459   
O378     O      0.368210000000     0.072530000000     0.141310000000    -0.226266   
O379     O      0.449970000000     0.103420000000     0.169480000000    -0.224425   
O380     O      0.394130000000     0.151050000000     0.165880000000    -0.235229   
O381     O      0.380270000000     0.133770000000     0.129230000000    -0.226308   
O382     O      0.436320000000     0.105900000000     0.128930000000    -0.233564   
O383     O      0.367920000000     0.100430000000     0.197350000000    -0.233585   
O384     O      0.404870000000     0.055260000000     0.155160000000    -0.235195   


