data_structure

_audit_creation_method RASPA-1.0
_audit_creation_date 2023-5-22
_audit_author_name 'Poobodin Mano'

_cell_length_a    55.3049
_cell_length_b    55.3107
_cell_length_c    55.307
_cell_angle_alpha 90.3779
_cell_angle_beta  90.3785
_cell_angle_gamma 90.3782
_cell_volume      169170

_symmetry_cell_setting          triclinic
_symmetry_space_group_name_Hall 'P 1'
_symmetry_space_group_name_H-M  'P 1'
_symmetry_Int_Tables_number     1

_symmetry_equiv_pos_as_xyz 'x,y,z'

loop_
_atom_site_label
_atom_site_type_symbol
_atom_site_fract_x
_atom_site_fract_y
_atom_site_fract_z
_atom_site_charge
C1       C      0.629690000000     0.708620000000     0.885050000000     0.281962   
C2       C      0.542330000000     0.742600000000     0.890440000000     0.282338   
C3       C      0.598760000000     0.747500000000     0.946800000000     0.282407   
C4       C      0.604070000000     0.781450000000     0.859430000000     0.281753   
C5       C      0.542330000000     0.742470000000     0.107350000000     0.282173   
C6       C      0.629710000000     0.708630000000     0.113040000000     0.28179    
C7       C      0.598650000000     0.747480000000     0.051350000000     0.282164   
C8       C      0.603940000000     0.781620000000     0.139050000000     0.282012   
C9       C      0.437780000000     0.742680000000     0.890590000000     0.282428   
C10      C      0.350070000000     0.708580000000     0.885260000000     0.282131   
C11      C      0.381750000000     0.747720000000     0.946880000000     0.282501   
C12      C      0.376100000000     0.781570000000     0.859510000000     0.281944   
C13      C      0.437790000000     0.742670000000     0.107740000000     0.282415   
C14      C      0.350200000000     0.708550000000     0.113050000000     0.281933   
C15      C      0.376180000000     0.781630000000     0.139010000000     0.282163   
C16      C      0.381400000000     0.747510000000     0.051420000000     0.282487   
C17      C      0.703110000000     0.355520000000     0.885330000000     0.281779   
C18      C      0.737210000000     0.443230000000     0.890650000000     0.28219    
C19      C      0.742260000000     0.387190000000     0.946940000000     0.282267   
C20      C      0.776100000000     0.381570000000     0.859560000000     0.282064   
C21      C      0.737210000000     0.443220000000     0.107780000000     0.282251   
C22      C      0.703100000000     0.355630000000     0.113120000000     0.281908   
C23      C      0.742060000000     0.386830000000     0.051480000000     0.282241   
C24      C      0.776180000000     0.381620000000     0.139080000000     0.281748   
C25      C      0.703180000000     0.635130000000     0.885050000000     0.28185    
C26      C      0.737150000000     0.547760000000     0.890470000000     0.28237    
C27      C      0.776000000000     0.609490000000     0.859430000000     0.281888   
C28      C      0.742050000000     0.604200000000     0.946810000000     0.282328   
C29      C      0.703190000000     0.635130000000     0.113050000000     0.281657   
C30      C      0.737020000000     0.547750000000     0.107360000000     0.282213   
C31      C      0.742040000000     0.604070000000     0.051360000000     0.282246   
C32      C      0.776190000000     0.609340000000     0.139060000000     0.281929   
C33      C      0.541580000000     0.886890000000     0.251950000000     0.282461   
C34      C      0.629180000000     0.881600000000     0.286060000000     0.281933   
C35      C      0.603200000000     0.855630000000     0.212980000000     0.281782   
C36      C      0.597940000000     0.943220000000     0.247110000000     0.28254    
C37      C      0.629200000000     0.109360000000     0.286120000000     0.282013   
C38      C      0.541500000000     0.104030000000     0.251980000000     0.282287   
C39      C      0.603170000000     0.135130000000     0.213130000000     0.281936   
C40      C      0.597540000000     0.047750000000     0.246950000000     0.282315   
C41      C      0.375200000000     0.135170000000     0.213130000000     0.282066   
C42      C      0.380540000000     0.047810000000     0.247090000000     0.282306   
C43      C      0.436950000000     0.104190000000     0.252000000000     0.282104   
C44      C      0.349570000000     0.109560000000     0.285950000000     0.281754   
C45      C      0.375430000000     0.855560000000     0.213010000000     0.281917   
C46      C      0.380710000000     0.943270000000     0.247130000000     0.282575   
C47      C      0.349660000000     0.881590000000     0.286010000000     0.281977   
C48      C      0.437030000000     0.887270000000     0.252160000000     0.28229    
C49      C      0.375380000000     0.208580000000     0.860020000000     0.281993   
C50      C      0.380630000000     0.242700000000     0.947730000000     0.282556   
C51      C      0.436970000000     0.247710000000     0.891750000000     0.282524   
C52      C      0.349610000000     0.281580000000     0.886030000000     0.281963   
C53      C      0.375180000000     0.208670000000     0.139640000000     0.281719   
C54      C      0.380490000000     0.242650000000     0.052280000000     0.282412   
C55      C      0.349550000000     0.281500000000     0.114030000000     0.281917   
C56      C      0.436920000000     0.247540000000     0.108650000000     0.282111   
C57      C      0.629120000000     0.281580000000     0.886090000000     0.281841   
C58      C      0.541520000000     0.247480000000     0.891390000000     0.282236   
C59      C      0.603130000000     0.208500000000     0.860130000000     0.282107   
C60      C      0.597890000000     0.242640000000     0.947720000000     0.282396   
C61      C      0.629170000000     0.281620000000     0.113880000000     0.281937   
C62      C      0.541470000000     0.247500000000     0.108540000000     0.282362   
C63      C      0.597520000000     0.242460000000     0.052270000000     0.282429   
C64      C      0.603150000000     0.208630000000     0.139640000000     0.281855   
C65      C      0.129750000000     0.380660000000     0.213130000000     0.281761   
C66      C      0.042380000000     0.385970000000     0.247120000000     0.281985   
C67      C      0.104150000000     0.355020000000     0.285960000000     0.28197    
C68      C      0.098750000000     0.442390000000     0.252010000000     0.282064   
C69      C      0.850120000000     0.380870000000     0.213080000000     0.281826   
C70      C      0.937840000000     0.386120000000     0.247200000000     0.282511   
C71      C      0.881860000000     0.442460000000     0.252220000000     0.282321   
C72      C      0.876140000000     0.355100000000     0.286080000000     0.28193    
C73      C      0.876170000000     0.634590000000     0.286070000000     0.281886   
C74      C      0.881480000000     0.546990000000     0.251980000000     0.282388   
C75      C      0.850200000000     0.608590000000     0.212990000000     0.281861   
C76      C      0.937800000000     0.603370000000     0.247120000000     0.282404   
C77      C      0.098610000000     0.546930000000     0.251960000000     0.282396   
C78      C      0.103970000000     0.634630000000     0.286070000000     0.281932   
C79      C      0.129720000000     0.608580000000     0.213080000000     0.281915   
C80      C      0.042350000000     0.602980000000     0.246930000000     0.282653   
C81      C      0.276140000000     0.634580000000     0.886010000000     0.281981   
C82      C      0.242040000000     0.546980000000     0.891340000000     0.282286   
C83      C      0.237200000000     0.603350000000     0.947650000000     0.282392   
C84      C      0.203060000000     0.608580000000     0.860050000000     0.282057   
C85      C      0.276200000000     0.634610000000     0.113810000000     0.281791   
C86      C      0.242080000000     0.546910000000     0.108450000000     0.282381   
C87      C      0.203210000000     0.608570000000     0.139570000000     0.28192    
C88      C      0.237030000000     0.602960000000     0.052190000000     0.28231    
C89      C      0.237210000000     0.385940000000     0.052250000000     0.2822     
C90      C      0.203240000000     0.380650000000     0.139630000000     0.281944   
C91      C      0.276060000000     0.355000000000     0.114020000000     0.281852   
C92      C      0.242110000000     0.442370000000     0.108610000000     0.282416   
C93      C      0.203130000000     0.380870000000     0.860000000000     0.28199    
C94      C      0.237250000000     0.386100000000     0.947710000000     0.282182   
C95      C      0.276120000000     0.355080000000     0.886010000000     0.281949   
C96      C      0.242280000000     0.442440000000     0.891730000000     0.28236    
C97      C      0.880540000000     0.742630000000     0.552240000000     0.282018   
C98      C      0.875130000000     0.708650000000     0.639610000000     0.281602   
C99      C      0.936900000000     0.747520000000     0.608670000000     0.282376   
C100     C      0.849520000000     0.781480000000     0.613980000000     0.28185    
C101     C      0.103140000000     0.708650000000     0.639570000000     0.28185    
C102     C      0.097450000000     0.742490000000     0.552200000000     0.282505   
C103     C      0.041440000000     0.747500000000     0.608520000000     0.282395   
C104     C      0.129150000000     0.781650000000     0.613790000000     0.281995   
C105     C      0.875400000000     0.708600000000     0.359990000000     0.281973   
C106     C      0.880730000000     0.742700000000     0.447700000000     0.282324   
C107     C      0.937020000000     0.747740000000     0.391660000000     0.282249   
C108     C      0.849650000000     0.781590000000     0.386030000000     0.281694   
C109     C      0.103210000000     0.708570000000     0.360060000000     0.281965   
C110     C      0.097880000000     0.742690000000     0.447650000000     0.282262   
C111     C      0.129170000000     0.781650000000     0.386040000000     0.28199    
C112     C      0.041570000000     0.747530000000     0.391270000000     0.282605   
C113     C      0.097820000000     0.443250000000     0.747100000000     0.282374   
C114     C      0.103140000000     0.355660000000     0.712990000000     0.28199    
C115     C      0.129110000000     0.381650000000     0.786070000000     0.282059   
C116     C      0.041510000000     0.386870000000     0.751960000000     0.282417   
C117     C      0.875350000000     0.355540000000     0.713060000000     0.281724   
C118     C      0.880670000000     0.443260000000     0.747150000000     0.282397   
C119     C      0.849590000000     0.381590000000     0.786060000000     0.28166    
C120     C      0.936960000000     0.387230000000     0.752190000000     0.28238    
C121     C      0.875100000000     0.635160000000     0.713090000000     0.281791   
C122     C      0.880510000000     0.547790000000     0.747070000000     0.282338   
C123     C      0.936860000000     0.604230000000     0.751950000000     0.282196   
C124     C      0.849490000000     0.609520000000     0.785920000000     0.281779   
C125     C      0.103110000000     0.635150000000     0.713050000000     0.281835   
C126     C      0.097410000000     0.547780000000     0.746890000000     0.282305   
C127     C      0.129120000000     0.609360000000     0.786050000000     0.281938   
C128     C      0.041410000000     0.604110000000     0.751910000000     0.282376   
C129     C      0.203240000000     0.135200000000     0.385070000000     0.281885   
C130     C      0.237210000000     0.047840000000     0.390400000000     0.282402   
C131     C      0.276070000000     0.109580000000     0.359440000000     0.28183    
C132     C      0.242100000000     0.104220000000     0.446810000000     0.28221    
C133     C      0.237270000000     0.943300000000     0.390540000000     0.282235   
C134     C      0.203160000000     0.855590000000     0.385270000000     0.281874   
C135     C      0.276160000000     0.881610000000     0.359500000000     0.281893   
C136     C      0.242300000000     0.887310000000     0.446870000000     0.282284   
C137     C      0.276150000000     0.881630000000     0.639010000000     0.281972   
C138     C      0.242060000000     0.886920000000     0.551410000000     0.282301   
C139     C      0.203070000000     0.855660000000     0.613020000000     0.281859   
C140     C      0.237200000000     0.943250000000     0.607770000000     0.282302   
C141     C      0.242060000000     0.104070000000     0.551350000000     0.282206   
C142     C      0.276170000000     0.109380000000     0.639070000000     0.282152   
C143     C      0.203180000000     0.135160000000     0.613030000000     0.281752   
C144     C      0.237010000000     0.047790000000     0.607380000000     0.282389   
C145     C      0.042380000000     0.242680000000     0.390420000000     0.282287   
C146     C      0.129750000000     0.208700000000     0.385080000000     0.28198    
C147     C      0.104140000000     0.281530000000     0.359450000000     0.281743   
C148     C      0.098760000000     0.247570000000     0.446820000000     0.282321   
C149     C      0.937830000000     0.242730000000     0.390600000000     0.282218   
C150     C      0.850120000000     0.208600000000     0.385340000000     0.281827   
C151     C      0.881830000000     0.247750000000     0.446930000000     0.282475   
C152     C      0.876130000000     0.281600000000     0.359570000000     0.282049   
C153     C      0.876130000000     0.281610000000     0.639070000000     0.282075   
C154     C      0.881430000000     0.247510000000     0.551480000000     0.28252    
C155     C      0.937770000000     0.242670000000     0.607830000000     0.282326   
C156     C      0.850180000000     0.208530000000     0.613090000000     0.282076   
C157     C      0.103930000000     0.281650000000     0.639070000000     0.282067   
C158     C      0.098600000000     0.247530000000     0.551370000000     0.282542   
C159     C      0.129690000000     0.208660000000     0.613040000000     0.281981   
C160     C      0.042310000000     0.242490000000     0.607410000000     0.282284   
C161     C      0.737180000000     0.885990000000     0.552270000000     0.282148   
C162     C      0.703200000000     0.880590000000     0.639630000000     0.281814   
C163     C      0.776030000000     0.854970000000     0.614000000000     0.281624   
C164     C      0.742080000000     0.942350000000     0.608700000000     0.28242    
C165     C      0.737030000000     0.102900000000     0.552270000000     0.282317   
C166     C      0.703180000000     0.108560000000     0.639650000000     0.281848   
C167     C      0.742050000000     0.046880000000     0.608580000000     0.282244   
C168     C      0.776180000000     0.134590000000     0.613870000000     0.281979   
C169     C      0.737240000000     0.103310000000     0.447730000000     0.282338   
C170     C      0.703130000000     0.108610000000     0.360140000000     0.282133   
C171     C      0.776200000000     0.134590000000     0.386120000000     0.281797   
C172     C      0.742100000000     0.046990000000     0.391360000000     0.282401   
C173     C      0.737260000000     0.886150000000     0.447730000000     0.282289   
C174     C      0.703170000000     0.880850000000     0.360010000000     0.281915   
C175     C      0.742310000000     0.942460000000     0.391710000000     0.28222    
C176     C      0.776160000000     0.855090000000     0.386050000000     0.281782   
C177     C      0.350070000000     0.880850000000     0.713030000000     0.281948   
C178     C      0.437780000000     0.886140000000     0.747140000000     0.282322   
C179     C      0.381750000000     0.942440000000     0.752180000000     0.282272   
C180     C      0.376100000000     0.855070000000     0.786020000000     0.282025   
C181     C      0.350170000000     0.108610000000     0.713010000000     0.281828   
C182     C      0.437760000000     0.103290000000     0.747140000000     0.282349   
C183     C      0.376140000000     0.134570000000     0.786090000000     0.282126   
C184     C      0.381380000000     0.046980000000     0.751980000000     0.282448   
C185     C      0.629700000000     0.880580000000     0.713120000000     0.281976   
C186     C      0.542330000000     0.885970000000     0.747090000000     0.282332   
C187     C      0.604070000000     0.854950000000     0.785950000000     0.281643   
C188     C      0.598750000000     0.942330000000     0.752000000000     0.282406   
C189     C      0.542300000000     0.102880000000     0.746960000000     0.282217   
C190     C      0.629680000000     0.108550000000     0.713140000000     0.281959   
C191     C      0.603900000000     0.134570000000     0.786130000000     0.281963   
C192     C      0.598620000000     0.046870000000     0.751990000000     0.282369   
C193     C      0.607540000000     0.982120000000     0.772900000000    -0.00657953 
C194     C      0.599930000000     0.969070000000     0.752270000000    -0.0522132  
C195     C      0.592700000000     0.981830000000     0.731610000000    -0.0069254  
C196     C      0.592660000000     0.007000000000     0.731610000000    -0.00697705 
C197     C      0.599850000000     0.020150000000     0.752270000000    -0.0521302  
C198     C      0.607500000000     0.007500000000     0.772900000000    -0.00668118 
C199     C      0.477550000000     0.097340000000     0.767450000000    -0.00694897 
C200     C      0.464500000000     0.104370000000     0.746830000000    -0.0522016  
C201     C      0.477260000000     0.111680000000     0.726180000000    -0.00662147 
C202     C      0.502630000000     0.111560000000     0.726130000000    -0.00659958 
C203     C      0.515580000000     0.104110000000     0.746720000000    -0.0521963  
C204     C      0.502730000000     0.097210000000     0.767390000000    -0.00693161 
C205     C      0.373110000000     0.982110000000     0.773020000000    -0.00662579 
C206     C      0.380520000000     0.969160000000     0.752420000000    -0.0521572  
C207     C      0.387380000000     0.982010000000     0.731730000000    -0.00695349 
C208     C      0.387260000000     0.007180000000     0.731670000000    -0.00693341 
C209     C      0.380270000000     0.020240000000     0.752300000000    -0.052201   
C210     C      0.373000000000     0.007490000000     0.772960000000    -0.00660249 
C211     C      0.477660000000     0.892130000000     0.767500000000    -0.00691997 
C212     C      0.464500000000     0.884910000000     0.746860000000    -0.0521945  
C213     C      0.477140000000     0.877220000000     0.726240000000    -0.00657454 
C214     C      0.502520000000     0.877170000000     0.726220000000    -0.00666704 
C215     C      0.515590000000     0.884810000000     0.746830000000    -0.0521672  
C216     C      0.502830000000     0.892080000000     0.767490000000    -0.00697419 
C217     C      0.721780000000     0.007190000000     0.397230000000    -0.0069456  
C218     C      0.742420000000     0.020260000000     0.390250000000    -0.0522486  
C219     C      0.763090000000     0.007510000000     0.382980000000    -0.00658075 
C220     C      0.763150000000     0.982130000000     0.383080000000    -0.00665767 
C221     C      0.742540000000     0.969170000000     0.390480000000    -0.0522155  
C222     C      0.721850000000     0.982020000000     0.397350000000    -0.00693713 
C223     C      0.690740000000     0.109060000000     0.682930000000    -0.00683098 
C224     C      0.684440000000     0.111360000000     0.658410000000    -0.0519921  
C225     C      0.660020000000     0.114710000000     0.652120000000    -0.00666076 
C226     C      0.642160000000     0.114710000000     0.669980000000    -0.00668506 
C227     C      0.648450000000     0.111360000000     0.694400000000    -0.0519247  
C228     C      0.672970000000     0.109060000000     0.700700000000    -0.00689692 
C229     C      0.757470000000     0.097240000000     0.512700000000    -0.00681124 
C230     C      0.736790000000     0.104140000000     0.525560000000    -0.0523295  
C231     C      0.716200000000     0.111580000000     0.512600000000    -0.00655815 
C232     C      0.716260000000     0.111700000000     0.487230000000    -0.00667566 
C233     C      0.736920000000     0.104390000000     0.474470000000    -0.0521372  
C234     C      0.757540000000     0.097370000000     0.487530000000    -0.00702698 
C235     C      0.690750000000     0.880550000000     0.682900000000    -0.00697182 
C236     C      0.684450000000     0.877790000000     0.658390000000    -0.0518561  
C237     C      0.660040000000     0.873970000000     0.652110000000    -0.00671991 
C238     C      0.642180000000     0.873970000000     0.669970000000    -0.00658525 
C239     C      0.648460000000     0.877780000000     0.694380000000    -0.0520886  
C240     C      0.672970000000     0.880550000000     0.700670000000    -0.00672011 
C241     C      0.716320000000     0.877190000000     0.512460000000    -0.00669374 
C242     C      0.736930000000     0.884830000000     0.525530000000    -0.052101   
C243     C      0.757590000000     0.892090000000     0.512780000000    -0.00697113 
C244     C      0.757610000000     0.892140000000     0.487610000000    -0.00693347 
C245     C      0.736970000000     0.884920000000     0.474440000000    -0.0522405  
C246     C      0.716340000000     0.877230000000     0.487080000000    -0.00657451 
C247     C      0.721680000000     0.981840000000     0.602650000000    -0.0068152  
C248     C      0.742340000000     0.969080000000     0.609880000000    -0.0523127  
C249     C      0.762970000000     0.982140000000     0.617500000000    -0.00658458 
C250     C      0.762960000000     0.007520000000     0.617470000000    -0.00667438 
C251     C      0.742330000000     0.020170000000     0.609810000000    -0.0521374  
C252     C      0.721670000000     0.007010000000     0.602610000000    -0.00706675 
C253     C      0.806820000000     0.195810000000     0.613360000000    -0.00680718 
C254     C      0.831310000000     0.189720000000     0.616030000000    -0.0521077  
C255     C      0.837430000000     0.165420000000     0.619960000000    -0.00653141 
C256     C      0.819450000000     0.147460000000     0.620180000000    -0.00670012 
C257     C      0.795060000000     0.153520000000     0.616480000000    -0.0519705  
C258     C      0.788920000000     0.177940000000     0.613590000000    -0.00690793 
C259     C      0.977560000000     0.262990000000     0.601930000000    -0.00693824 
C260     C      0.964510000000     0.242360000000     0.608920000000    -0.0522043  
C261     C      0.977270000000     0.221700000000     0.616200000000    -0.00659391 
C262     C      0.002650000000     0.221640000000     0.616070000000    -0.006581   
C263     C      0.015600000000     0.242240000000     0.608660000000    -0.0522715  
C264     C      0.002740000000     0.262930000000     0.601800000000    -0.00694377 
C265     C      0.837260000000     0.165340000000     0.379020000000    -0.00666915 
C266     C      0.831190000000     0.189720000000     0.382740000000    -0.0519584  
C267     C      0.806770000000     0.195850000000     0.385650000000    -0.00684291 
C268     C      0.788900000000     0.177950000000     0.385870000000    -0.00688026 
C269     C      0.795000000000     0.153470000000     0.383190000000    -0.0519976  
C270     C      0.819300000000     0.147350000000     0.379240000000    -0.00661966 
C271     C      0.887510000000     0.227290000000     0.486500000000    -0.00697527 
C272     C      0.880600000000     0.247980000000     0.473650000000    -0.0522046  
C273     C      0.873150000000     0.268560000000     0.486610000000    -0.00661393 
C274     C      0.873030000000     0.268490000000     0.511990000000    -0.00660361 
C275     C      0.880340000000     0.247840000000     0.524740000000    -0.0522125  
C276     C      0.887380000000     0.227220000000     0.511670000000    -0.00695911 
C277     C      0.002880000000     0.263090000000     0.396480000000    -0.00687477 
C278     C      0.015640000000     0.242420000000     0.389250000000    -0.0521903  
C279     C      0.002570000000     0.221800000000     0.381640000000    -0.00659674 
C280     C      0.977190000000     0.221810000000     0.381690000000    -0.00666653 
C281     C      0.964550000000     0.242440000000     0.389350000000    -0.0520735  
C282     C      0.977710000000     0.263100000000     0.396540000000    -0.00707635 
C283     C      0.107570000000     0.268440000000     0.486620000000    -0.0066223  
C284     C      0.099920000000     0.247830000000     0.473560000000    -0.052169   
C285     C      0.092650000000     0.227180000000     0.486320000000    -0.00693629 
C286     C      0.092600000000     0.227170000000     0.511490000000    -0.00695806 
C287     C      0.099830000000     0.247810000000     0.524650000000    -0.0522121  
C288     C      0.107530000000     0.268430000000     0.512000000000    -0.0066212  
C289     C      0.190750000000     0.178440000000     0.613520000000    -0.00700486 
C290     C      0.184440000000     0.153920000000     0.615830000000    -0.0518932  
C291     C      0.160020000000     0.147640000000     0.619190000000    -0.00671608 
C292     C      0.142170000000     0.165500000000     0.619190000000    -0.00660314 
C293     C      0.148450000000     0.189920000000     0.615840000000    -0.0520563  
C294     C      0.172970000000     0.196210000000     0.613520000000    -0.00674662 
C295     C      0.319450000000     0.115680000000     0.651940000000    -0.0064852  
C296     C      0.295050000000     0.111990000000     0.657990000000    -0.0521684  
C297     C      0.288910000000     0.109120000000     0.682420000000    -0.00678887 
C298     C      0.306810000000     0.108890000000     0.700300000000    -0.00694535 
C299     C      0.331290000000     0.111550000000     0.694200000000    -0.0518797  
C300     C      0.337430000000     0.115460000000     0.669900000000    -0.00677109 
C301     C      0.319250000000     0.874760000000     0.651770000000    -0.00658175 
C302     C      0.294950000000     0.878690000000     0.657890000000    -0.052106   
C303     C      0.288850000000     0.881360000000     0.682370000000    -0.00674785 
C304     C      0.306720000000     0.881130000000     0.700280000000    -0.00698816 
C305     C      0.331150000000     0.878240000000     0.694140000000    -0.0519356  
C306     C      0.337210000000     0.874540000000     0.669760000000    -0.0066735  
C307     C      0.257520000000     0.983050000000     0.601880000000    -0.00703488 
C308     C      0.236880000000     0.969990000000     0.608870000000    -0.0521117  
C309     C      0.216220000000     0.982740000000     0.616140000000    -0.00668165 
C310     C      0.216170000000     0.008120000000     0.616030000000    -0.00657423 
C311     C      0.236770000000     0.021070000000     0.608620000000    -0.0522292  
C312     C      0.257460000000     0.008220000000     0.601760000000    -0.00686512 
C313     C      0.263110000000     0.878640000000     0.486550000000    -0.00650402 
C314     C      0.242530000000     0.886080000000     0.473590000000    -0.0522415  
C315     C      0.221840000000     0.892980000000     0.486430000000    -0.0069187  
C316     C      0.221770000000     0.892850000000     0.511600000000    -0.00697448 
C317     C      0.242390000000     0.885830000000     0.524670000000    -0.052117   
C318     C      0.263050000000     0.878520000000     0.511920000000    -0.0067428  
C319     C      0.160080000000     0.147690000000     0.378430000000    -0.00666211 
C320     C      0.184490000000     0.153960000000     0.382270000000    -0.051887   
C321     C      0.190790000000     0.178470000000     0.385070000000    -0.00694352 
C322     C      0.173020000000     0.196240000000     0.385070000000    -0.0067866  
C323     C      0.148500000000     0.189960000000     0.382280000000    -0.0520756  
C324     C      0.142220000000     0.165550000000     0.378440000000    -0.00663068 
C325     C      0.257620000000     0.008350000000     0.396460000000    -0.00693034 
C326     C      0.236960000000     0.021100000000     0.389220000000    -0.0522054  
C327     C      0.216340000000     0.008040000000     0.381610000000    -0.00656494 
C328     C      0.216350000000     0.982660000000     0.381650000000    -0.00663482 
C329     C      0.236990000000     0.970010000000     0.389310000000    -0.052192   
C330     C      0.257640000000     0.983180000000     0.396500000000    -0.00694775 
C331     C      0.221710000000     0.098120000000     0.486300000000    -0.00694087 
C332     C      0.242360000000     0.105380000000     0.473550000000    -0.0521641  
C333     C      0.262970000000     0.113030000000     0.486610000000    -0.00661877 
C334     C      0.262960000000     0.112990000000     0.511990000000    -0.00659737 
C335     C      0.242340000000     0.105300000000     0.524640000000    -0.0522192  
C336     C      0.221700000000     0.098080000000     0.511480000000    -0.00694805 
C337     C      0.976360000000     0.598200000000     0.731540000000    -0.00707454 
C338     C      0.963600000000     0.605410000000     0.752220000000    -0.052074   
C339     C      0.976660000000     0.613020000000     0.772840000000    -0.00672276 
C340     C      0.002040000000     0.612980000000     0.772830000000    -0.00652068 
C341     C      0.014690000000     0.605340000000     0.752200000000    -0.0522567  
C342     C      0.001530000000     0.598160000000     0.731540000000    -0.00684366 
C343     C      0.875630000000     0.312200000000     0.700330000000    -0.00685909 
C344     C      0.872740000000     0.336610000000     0.694190000000    -0.0519694  
C345     C      0.869030000000     0.342670000000     0.669800000000    -0.00667369 
C346     C      0.869250000000     0.324710000000     0.651810000000    -0.0065928  
C347     C      0.873190000000     0.300410000000     0.657940000000    -0.0521331  
C348     C      0.875860000000     0.294320000000     0.682430000000    -0.00680735 
C349     C      0.871730000000     0.482610000000     0.726240000000    -0.00661086 
C350     C      0.879440000000     0.469970000000     0.746860000000    -0.0522583  
C351     C      0.886690000000     0.483140000000     0.767490000000    -0.0069084  
C352     C      0.886640000000     0.508310000000     0.767470000000    -0.00697312 
C353     C      0.879350000000     0.521060000000     0.746820000000    -0.052232   
C354     C      0.871690000000     0.507990000000     0.726220000000    -0.00660737 
C355     C      0.110000000000     0.342910000000     0.669880000000    -0.00672372 
C356     C      0.106080000000     0.336780000000     0.694190000000    -0.0520171  
C357     C      0.103440000000     0.312300000000     0.700290000000    -0.00682128 
C358     C      0.103670000000     0.294400000000     0.682420000000    -0.00682743 
C359     C      0.106540000000     0.300530000000     0.657990000000    -0.052117   
C360     C      0.110220000000     0.324920000000     0.651930000000    -0.00652001 
C361     C      0.002020000000     0.378500000000     0.772960000000    -0.00653025 
C362     C      0.014770000000     0.385760000000     0.752290000000    -0.0522309  
C363     C      0.001700000000     0.392720000000     0.731650000000    -0.00693679 
C364     C      0.976530000000     0.392840000000     0.731720000000    -0.00694619 
C365     C      0.963680000000     0.385990000000     0.752420000000    -0.0521746  
C366     C      0.976640000000     0.378610000000     0.773030000000    -0.0067006  
C367     C      0.091850000000     0.483040000000     0.767390000000    -0.0068876  
C368     C      0.098900000000     0.469980000000     0.746780000000    -0.0522963  
C369     C      0.106220000000     0.482740000000     0.726130000000    -0.00656012 
C370     C      0.106100000000     0.508110000000     0.726070000000    -0.00660219 
C371     C      0.098640000000     0.521070000000     0.746650000000    -0.0522332  
C372     C      0.091720000000     0.508210000000     0.767330000000    -0.00698665 
C373     C      0.159900000000     0.842720000000     0.378940000000    -0.00668503 
C374     C      0.184290000000     0.836660000000     0.382660000000    -0.0519977  
C375     C      0.190420000000     0.812240000000     0.385580000000    -0.00687099 
C376     C      0.172520000000     0.794370000000     0.385800000000    -0.0068139  
C377     C      0.148040000000     0.800460000000     0.383110000000    -0.0520763  
C378     C      0.141910000000     0.824760000000     0.379160000000    -0.00661815 
C379     C      0.837180000000     0.824760000000     0.379900000000    -0.00674759 
C380     C      0.830890000000     0.800340000000     0.383240000000    -0.051848   
C381     C      0.806370000000     0.794040000000     0.385530000000    -0.00689409 
C382     C      0.788600000000     0.811810000000     0.385540000000    -0.00686357 
C383     C      0.794900000000     0.836330000000     0.383250000000    -0.0519717  
C384     C      0.819320000000     0.842610000000     0.379900000000    -0.00661225 
C385     C      0.976700000000     0.768580000000     0.383020000000    -0.00663883 
C386     C      0.963740000000     0.747970000000     0.390410000000    -0.0521736  
C387     C      0.976590000000     0.727280000000     0.397270000000    -0.00690429 
C388     C      0.001760000000     0.727210000000     0.397140000000    -0.00695002 
C389     C      0.014830000000     0.747850000000     0.390170000000    -0.0522545  
C390     C      0.002070000000     0.768520000000     0.382900000000    -0.00658876 
C391     C      0.172500000000     0.794400000000     0.613500000000    -0.00677377 
C392     C      0.148070000000     0.800530000000     0.616400000000    -0.0521249  
C393     C      0.142010000000     0.824920000000     0.620100000000    -0.0065026  
C394     C      0.159960000000     0.842910000000     0.619880000000    -0.00679165 
C395     C      0.184270000000     0.836780000000     0.615950000000    -0.0519363  
C396     C      0.190370000000     0.812300000000     0.613280000000    -0.0069386  
C397     C      0.109270000000     0.665480000000     0.652040000000    -0.00663846 
C398     C      0.105940000000     0.689910000000     0.658330000000    -0.0519917  
C399     C      0.103650000000     0.696200000000     0.682850000000    -0.00682401 
C400     C      0.103640000000     0.678430000000     0.700620000000    -0.00689157 
C401     C      0.105920000000     0.653910000000     0.694310000000    -0.0519456  
C402     C      0.109260000000     0.647630000000     0.669890000000    -0.00667222 
C403     C      0.091770000000     0.762920000000     0.512620000000    -0.00694205 
C404     C      0.098690000000     0.742250000000     0.525480000000    -0.0522534  
C405     C      0.106160000000     0.721670000000     0.512520000000    -0.00656804 
C406     C      0.106280000000     0.721730000000     0.487150000000    -0.00660857 
C407     C      0.098960000000     0.742370000000     0.474390000000    -0.0521728  
C408     C      0.091910000000     0.762980000000     0.487450000000    -0.00692249 
C409     C      0.806250000000     0.793930000000     0.613970000000    -0.00687403 
C410     C      0.830760000000     0.800220000000     0.616780000000    -0.0519607  
C411     C      0.837040000000     0.824620000000     0.620650000000    -0.00666117 
C412     C      0.819180000000     0.842480000000     0.620660000000    -0.006698   
C413     C      0.794770000000     0.836210000000     0.616800000000    -0.0518853  
C414     C      0.788480000000     0.811700000000     0.613980000000    -0.0069021  
C415     C      0.868500000000     0.665490000000     0.652070000000    -0.0068025  
C416     C      0.872310000000     0.689900000000     0.658360000000    -0.0517932  
C417     C      0.875070000000     0.696200000000     0.682880000000    -0.00700511 
C418     C      0.875060000000     0.678420000000     0.700650000000    -0.0067732  
C419     C      0.872300000000     0.653910000000     0.694350000000    -0.0520428  
C420     C      0.868500000000     0.647630000000     0.669930000000    -0.00660125 
C421     C      0.886680000000     0.763020000000     0.512760000000    -0.0070014  
C422     C      0.879390000000     0.742370000000     0.525500000000    -0.0520781  
C423     C      0.871740000000     0.721770000000     0.512440000000    -0.00665667 
C424     C      0.871790000000     0.721790000000     0.487060000000    -0.00662578 
C425     C      0.879500000000     0.742410000000     0.474420000000    -0.0521823  
C426     C      0.886730000000     0.763040000000     0.487580000000    -0.00690623 
C427     C      0.976690000000     0.768410000000     0.617460000000    -0.00665824 
C428     C      0.963640000000     0.747790000000     0.609850000000    -0.0521648  
C429     C      0.976400000000     0.727120000000     0.602630000000    -0.00701942 
C430     C      0.001570000000     0.727120000000     0.602580000000    -0.00685602 
C431     C      0.014730000000     0.747780000000     0.609760000000    -0.0523242  
C432     C      0.002070000000     0.768410000000     0.617410000000    -0.00653309 
C433     C      0.159860000000     0.374540000000     0.847130000000    -0.00666764 
C434     C      0.184240000000     0.378270000000     0.841070000000    -0.0519354  
C435     C      0.190370000000     0.381190000000     0.816650000000    -0.00691301 
C436     C      0.172470000000     0.381410000000     0.798780000000    -0.00674165 
C437     C      0.147990000000     0.378720000000     0.804870000000    -0.0521294  
C438     C      0.141870000000     0.374760000000     0.829170000000    -0.00659377 
C439     C      0.216320000000     0.377180000000     0.012450000000    -0.00661241 
C440     C      0.236950000000     0.384760000000     0.025510000000    -0.0521436  
C441     C      0.257630000000     0.391960000000     0.012760000000    -0.00694697 
C442     C      0.257640000000     0.392010000000     0.987590000000    -0.0069658  
C443     C      0.236970000000     0.384860000000     0.974420000000    -0.0521897  
C444     C      0.216330000000     0.377220000000     0.987070000000    -0.0066393  
C445     C      0.221730000000     0.507040000000     0.102420000000    -0.00701543 
C446     C      0.242360000000     0.520190000000     0.109670000000    -0.0521333  
C447     C      0.262970000000     0.507550000000     0.117390000000    -0.00669004 
C448     C      0.262980000000     0.482170000000     0.117430000000    -0.00653398 
C449     C      0.242380000000     0.469110000000     0.109760000000    -0.0522465  
C450     C      0.221740000000     0.481870000000     0.102470000000    -0.00688064 
C451     C      0.190350000000     0.608830000000     0.816690000000    -0.00690237 
C452     C      0.184250000000     0.611510000000     0.841180000000    -0.0520678  
C453     C      0.159950000000     0.615460000000     0.847300000000    -0.00660405 
C454     C      0.141990000000     0.615680000000     0.829320000000    -0.00665941 
C455     C      0.148050000000     0.611960000000     0.804930000000    -0.0520088  
C456     C      0.172470000000     0.609060000000     0.798800000000    -0.00680403 
C457     C      0.263020000000     0.507490000000     0.882920000000    -0.00662956 
C458     C      0.242370000000     0.520240000000     0.890250000000    -0.0521674  
C459     C      0.221770000000     0.507180000000     0.897310000000    -0.00693607 
C460     C      0.221840000000     0.482010000000     0.897440000000    -0.00695729 
C461     C      0.242510000000     0.469160000000     0.890500000000    -0.052199   
C462     C      0.263080000000     0.482120000000     0.883030000000    -0.00657927 
C463     C      0.257540000000     0.597510000000     0.987440000000    -0.00689405 
C464     C      0.236890000000     0.604460000000     0.974380000000    -0.0522758  
C465     C      0.216220000000     0.611710000000     0.987150000000    -0.00660743 
C466     C      0.216170000000     0.611590000000     0.012520000000    -0.00659833 
C467     C      0.236790000000     0.604210000000     0.025470000000    -0.052187   
C468     C      0.257490000000     0.597380000000     0.012610000000    -0.00695957 
C469     C      0.142200000000     0.614750000000     0.169920000000    -0.00666856 
C470     C      0.148480000000     0.611370000000     0.194330000000    -0.0519535  
C471     C      0.173000000000     0.609040000000     0.200630000000    -0.00686962 
C472     C      0.190770000000     0.609040000000     0.182850000000    -0.00685398 
C473     C      0.184470000000     0.611370000000     0.158340000000    -0.0519575  
C474     C      0.160050000000     0.614740000000     0.152060000000    -0.00665463 
C475     C      0.110270000000     0.647500000000     0.329340000000    -0.00667509 
C476     C      0.106590000000     0.653560000000     0.304950000000    -0.0519452  
C477     C      0.103720000000     0.677980000000     0.298810000000    -0.00688282 
C478     C      0.103500000000     0.695860000000     0.316710000000    -0.00684711 
C479     C      0.106150000000     0.689760000000     0.341190000000    -0.0520595  
C480     C      0.110060000000     0.665460000000     0.347320000000    -0.00657754 
C481     C      0.869310000000     0.647340000000     0.329170000000    -0.00673557 
C482     C      0.873230000000     0.653470000000     0.304870000000    -0.0519735  
C483     C      0.875890000000     0.677950000000     0.298770000000    -0.00686061 
C484     C      0.875670000000     0.695850000000     0.316640000000    -0.00681837 
C485     C      0.872790000000     0.689720000000     0.341070000000    -0.0520867  
C486     C      0.869090000000     0.665330000000     0.347130000000    -0.00653144 
C487     C      0.977300000000     0.611730000000     0.226130000000    -0.00667378 
C488     C      0.964540000000     0.604470000000     0.246810000000    -0.0521834  
C489     C      0.977600000000     0.597520000000     0.267450000000    -0.00695523 
C490     C      0.002770000000     0.597390000000     0.267390000000    -0.0068786  
C491     C      0.015630000000     0.604230000000     0.246690000000    -0.0523288  
C492     C      0.002670000000     0.611610000000     0.226080000000    -0.00651954 
C493     C      0.870010000000     0.342630000000     0.329240000000    -0.0066444  
C494     C      0.873330000000     0.336340000000     0.304820000000    -0.0520178  
C495     C      0.875600000000     0.311820000000     0.298520000000    -0.00679191 
C496     C      0.875590000000     0.294050000000     0.316290000000    -0.00689161 
C497     C      0.873330000000     0.300350000000     0.340810000000    -0.051951   
C498     C      0.870010000000     0.324770000000     0.347100000000    -0.00668166 
C499     C      0.873170000000     0.482140000000     0.273030000000    -0.00660386 
C500     C      0.880640000000     0.469180000000     0.252450000000    -0.052194   
C501     C      0.887570000000     0.482020000000     0.231780000000    -0.00693053 
C502     C      0.887440000000     0.507190000000     0.231700000000    -0.00695715 
C503     C      0.880400000000     0.520260000000     0.252310000000    -0.0522639  
C504     C      0.873060000000     0.507510000000     0.272960000000    -0.00660546 
C505     C      0.104170000000     0.311750000000     0.298410000000    -0.0068847  
C506     C      0.106950000000     0.336270000000     0.304710000000    -0.0519889  
C507     C      0.110780000000     0.342540000000     0.329120000000    -0.00661621 
C508     C      0.110780000000     0.324680000000     0.346980000000    -0.00664732 
C509     C      0.106950000000     0.300270000000     0.340700000000    -0.0519766  
C510     C      0.104170000000     0.293980000000     0.316180000000    -0.00686292 
C511     C      0.142230000000     0.374010000000     0.169980000000    -0.00669953 
C512     C      0.148510000000     0.377870000000     0.194390000000    -0.0519605  
C513     C      0.173020000000     0.380670000000     0.200670000000    -0.00683898 
C514     C      0.190790000000     0.380670000000     0.182900000000    -0.00684187 
C515     C      0.184500000000     0.377860000000     0.158390000000    -0.0520451  
C516     C      0.160090000000     0.374010000000     0.152120000000    -0.00658015 
C517     C      0.002580000000     0.377200000000     0.226250000000    -0.00672514 
C518     C      0.015640000000     0.384790000000     0.246870000000    -0.0520516  
C519     C      0.002890000000     0.392000000000     0.267550000000    -0.00698445 
C520     C      0.977720000000     0.392040000000     0.267570000000    -0.0069051  
C521     C      0.964550000000     0.384880000000     0.246910000000    -0.0523484  
C522     C      0.977200000000     0.377240000000     0.226270000000    -0.00649176 
C523     C      0.107580000000     0.482190000000     0.272870000000    -0.00659411 
C524     C      0.099910000000     0.469130000000     0.252270000000    -0.0521382  
C525     C      0.092620000000     0.481880000000     0.231630000000    -0.00691499 
C526     C      0.092570000000     0.507050000000     0.231620000000    -0.00698367 
C527     C      0.099830000000     0.520210000000     0.252250000000    -0.0521666  
C528     C      0.107550000000     0.507560000000     0.272860000000    -0.00661674 
C529     C      0.603400000000     0.195790000000     0.816780000000    -0.00684117 
C530     C      0.606060000000     0.189690000000     0.841260000000    -0.0520852  
C531     C      0.609990000000     0.165390000000     0.847390000000    -0.00662824 
C532     C      0.610210000000     0.147430000000     0.829400000000    -0.00661282 
C533     C      0.606510000000     0.153490000000     0.805010000000    -0.0520609  
C534     C      0.603620000000     0.177910000000     0.798880000000    -0.00682996 
C535     C      0.606270000000     0.221660000000     0.987220000000    -0.0067094  
C536     C      0.599000000000     0.242330000000     0.974460000000    -0.0521423  
C537     C      0.592030000000     0.262970000000     0.987520000000    -0.00699592 
C538     C      0.591910000000     0.262910000000     0.012690000000    -0.00688035 
C539     C      0.598760000000     0.242220000000     0.025550000000    -0.0522461  
C540     C      0.606150000000     0.221610000000     0.012600000000    -0.00655157 
C541     C      0.306280000000     0.293960000000     0.114060000000    -0.00693432 
C542     C      0.330790000000     0.300250000000     0.116840000000    -0.0518442  
C543     C      0.337080000000     0.324660000000     0.120650000000    -0.00677603 
C544     C      0.319220000000     0.342520000000     0.120650000000    -0.0065575  
C545     C      0.294800000000     0.336250000000     0.116830000000    -0.052065   
C546     C      0.288510000000     0.311730000000     0.114060000000    -0.0067781  
C547     C      0.476720000000     0.268410000000     0.117480000000    -0.00665017 
C548     C      0.463660000000     0.247800000000     0.109820000000    -0.0521253  
C549     C      0.476420000000     0.227160000000     0.102540000000    -0.00696606 
C550     C      0.501590000000     0.227150000000     0.102500000000    -0.00690173 
C551     C      0.514750000000     0.247780000000     0.109750000000    -0.0522013  
C552     C      0.502100000000     0.268400000000     0.117450000000    -0.00663329 
C553     C      0.337140000000     0.324740000000     0.879900000000    -0.00660367 
C554     C      0.330850000000     0.300320000000     0.883220000000    -0.0520438  
C555     C      0.306330000000     0.294020000000     0.885480000000    -0.00678959 
C556     C      0.288550000000     0.311800000000     0.885480000000    -0.0069046  
C557     C      0.294860000000     0.336320000000     0.883210000000    -0.0519728  
C558     C      0.319290000000     0.342600000000     0.879890000000    -0.00669345 
C559     C      0.375680000000     0.195830000000     0.816670000000    -0.0069252  
C560     C      0.372770000000     0.189700000000     0.841090000000    -0.0519442  
C561     C      0.369040000000     0.165310000000     0.847160000000    -0.00671867 
C562     C      0.369260000000     0.147330000000     0.829200000000    -0.00657362 
C563     C      0.373210000000     0.153450000000     0.804900000000    -0.0520578  
C564     C      0.375910000000     0.177930000000     0.798800000000    -0.00682848 
C565     C      0.371740000000     0.221790000000     0.987090000000    -0.00653123 
C566     C      0.379390000000     0.242420000000     0.974450000000    -0.0522987  
C567     C      0.386570000000     0.263070000000     0.987610000000    -0.00681294 
C568     C      0.386530000000     0.263060000000     0.012780000000    -0.00703023 
C569     C      0.379310000000     0.242390000000     0.025540000000    -0.0521619  
C570     C      0.371710000000     0.221770000000     0.012470000000    -0.00665464 
C571     C      0.476540000000     0.227270000000     0.897460000000    -0.00692093 
C572     C      0.463690000000     0.247950000000     0.890530000000    -0.0522911  
C573     C      0.476660000000     0.268520000000     0.883070000000    -0.00650449 
C574     C      0.502030000000     0.268460000000     0.882970000000    -0.00669999 
C575     C      0.514780000000     0.247810000000     0.890300000000    -0.0521124  
C576     C      0.501710000000     0.227200000000     0.897340000000    -0.00698064 
C577     C      0.337180000000     0.875470000000     0.329170000000    -0.00656068 
C578     C      0.330900000000     0.878790000000     0.304750000000    -0.0520569  
C579     C      0.306370000000     0.881080000000     0.298450000000    -0.00686943 
C580     C      0.288600000000     0.881080000000     0.316220000000    -0.00684494 
C581     C      0.294900000000     0.878810000000     0.340740000000    -0.0519801  
C582     C      0.319320000000     0.875470000000     0.347030000000    -0.0067043  
C583     C      0.306300000000     0.109580000000     0.298400000000    -0.00686058 
C584     C      0.330810000000     0.112360000000     0.304690000000    -0.0519308  
C585     C      0.337090000000     0.116200000000     0.329100000000    -0.00670013 
C586     C      0.319230000000     0.116210000000     0.346960000000    -0.00665483 
C587     C      0.294810000000     0.112380000000     0.340680000000    -0.0519685  
C588     C      0.288520000000     0.109590000000     0.316170000000    -0.0068526  
C589     C      0.375200000000     0.178440000000     0.200680000000    -0.00680633 
C590     C      0.372400000000     0.153930000000     0.194390000000    -0.0520234  
C591     C      0.368550000000     0.147660000000     0.169970000000    -0.00668307 
C592     C      0.368550000000     0.165520000000     0.152120000000    -0.00666077 
C593     C      0.372390000000     0.189930000000     0.158400000000    -0.0519169  
C594     C      0.375190000000     0.196220000000     0.182910000000    -0.00694424 
C595     C      0.371760000000     0.008010000000     0.226210000000    -0.00673166 
C596     C      0.379370000000     0.021070000000     0.246830000000    -0.0520768  
C597     C      0.386610000000     0.008310000000     0.267500000000    -0.00706153 
C598     C      0.386660000000     0.983140000000     0.267500000000    -0.00683369 
C599     C      0.379470000000     0.969980000000     0.246850000000    -0.0523643  
C600     C      0.371810000000     0.982630000000     0.226220000000    -0.00646759 
C601     C      0.609330000000     0.147610000000     0.169970000000    -0.00668033 
C602     C      0.605960000000     0.153890000000     0.194390000000    -0.0519869  
C603     C      0.603640000000     0.178410000000     0.200690000000    -0.00687168 
C604     C      0.603630000000     0.196180000000     0.182920000000    -0.00682207 
C605     C      0.605950000000     0.189890000000     0.158400000000    -0.0519813  
C606     C      0.609320000000     0.165470000000     0.152110000000    -0.00666295 
C607     C      0.642050000000     0.115660000000     0.329400000000    -0.00669367 
C608     C      0.648120000000     0.111970000000     0.305010000000    -0.0519801  
C609     C      0.672550000000     0.109110000000     0.298870000000    -0.00689185 
C610     C      0.690420000000     0.108890000000     0.316770000000    -0.00682271 
C611     C      0.684320000000     0.111540000000     0.341260000000    -0.0520511  
C612     C      0.660010000000     0.115450000000     0.347380000000    -0.00660862 
C613     C      0.502120000000     0.112940000000     0.272880000000    -0.00654867 
C614     C      0.514780000000     0.105260000000     0.252260000000    -0.0521952  
C615     C      0.501620000000     0.098040000000     0.231620000000    -0.00692158 
C616     C      0.476450000000     0.098090000000     0.231620000000    -0.0069693  
C617     C      0.463690000000     0.105350000000     0.252270000000    -0.052088   
C618     C      0.476740000000     0.112990000000     0.272890000000    -0.00670839 
C619     C      0.641920000000     0.874730000000     0.329170000000    -0.00666269 
C620     C      0.648050000000     0.878670000000     0.304870000000    -0.0520394  
C621     C      0.672540000000     0.881350000000     0.298780000000    -0.00686301 
C622     C      0.690430000000     0.881130000000     0.316660000000    -0.00683072 
C623     C      0.684290000000     0.878240000000     0.341080000000    -0.052024   
C624     C      0.659900000000     0.874530000000     0.347130000000    -0.00657933 
C625     C      0.501770000000     0.892820000000     0.231650000000    -0.00696362 
C626     C      0.514840000000     0.885790000000     0.252270000000    -0.0522117  
C627     C      0.502090000000     0.878480000000     0.272920000000    -0.00661955 
C628     C      0.476710000000     0.878600000000     0.272980000000    -0.00658608 
C629     C      0.463750000000     0.886040000000     0.252400000000    -0.0522075  
C630     C      0.476600000000     0.892950000000     0.231720000000    -0.00692804 
C631     C      0.606310000000     0.982720000000     0.226150000000    -0.00648786 
C632     C      0.599030000000     0.969950000000     0.246800000000    -0.0523634  
C633     C      0.592040000000     0.983010000000     0.267440000000    -0.00687824 
C634     C      0.591910000000     0.008180000000     0.267390000000    -0.00698122 
C635     C      0.598780000000     0.021040000000     0.246700000000    -0.052228   
C636     C      0.606200000000     0.008090000000     0.226100000000    -0.00662847 
C637     C      0.788940000000     0.609050000000     0.182410000000    -0.00684249 
C638     C      0.795070000000     0.611950000000     0.157990000000    -0.0519948  
C639     C      0.819460000000     0.615660000000     0.151920000000    -0.00663955 
C640     C      0.837450000000     0.615450000000     0.169880000000    -0.00666723 
C641     C      0.831320000000     0.611510000000     0.194180000000    -0.0519767  
C642     C      0.806840000000     0.608830000000     0.200280000000    -0.00685348 
C643     C      0.788450000000     0.609470000000     0.816160000000    -0.00679564 
C644     C      0.794740000000     0.612290000000     0.840670000000    -0.0520157  
C645     C      0.819150000000     0.616160000000     0.846940000000    -0.00660313 
C646     C      0.837010000000     0.616170000000     0.829080000000    -0.00676513 
C647     C      0.830730000000     0.612300000000     0.804670000000    -0.051833   
C648     C      0.806220000000     0.609480000000     0.798380000000    -0.00695542 
C649     C      0.721650000000     0.598180000000     0.986320000000    -0.00688164 
C650     C      0.742320000000     0.605380000000     0.973550000000    -0.0522081  
C651     C      0.762950000000     0.612980000000     0.986610000000    -0.00657158 
C652     C      0.762950000000     0.612940000000     0.011980000000    -0.00667121 
C653     C      0.742320000000     0.605300000000     0.024640000000    -0.0521032  
C654     C      0.721650000000     0.598130000000     0.011490000000    -0.00703906 
C655     C      0.659990000000     0.342880000000     0.119970000000    -0.00668663 
C656     C      0.684290000000     0.336750000000     0.116060000000    -0.0519365  
C657     C      0.690400000000     0.312270000000     0.113410000000    -0.006926   
C658     C      0.672520000000     0.294370000000     0.113640000000    -0.00678383 
C659     C      0.648100000000     0.300500000000     0.116500000000    -0.0520077  
C660     C      0.642030000000     0.324890000000     0.120180000000    -0.00659873 
C661     C      0.819280000000     0.374740000000     0.151840000000    -0.00660802 
C662     C      0.794990000000     0.378700000000     0.157960000000    -0.0519585  
C663     C      0.788890000000     0.381410000000     0.182440000000    -0.00689933 
C664     C      0.806770000000     0.381190000000     0.200340000000    -0.00688101 
C665     C      0.831190000000     0.378270000000     0.194200000000    -0.0519562  
C666     C      0.837250000000     0.374530000000     0.169820000000    -0.00667363 
C667     C      0.716250000000     0.482710000000     0.116180000000    -0.00655831 
C668     C      0.736890000000     0.469950000000     0.108850000000    -0.0522412  
C669     C      0.757510000000     0.483010000000     0.101800000000    -0.00695286 
C670     C      0.757450000000     0.508180000000     0.101670000000    -0.00698989 
C671     C      0.736770000000     0.521040000000     0.108600000000    -0.0521998  
C672     C      0.716190000000     0.508090000000     0.116060000000    -0.0066377  
C673     C      0.788540000000     0.381080000000     0.816280000000    -0.00681832 
C674     C      0.794840000000     0.378770000000     0.840800000000    -0.05205    
C675     C      0.819270000000     0.375430000000     0.847080000000    -0.00666327 
C676     C      0.837120000000     0.375430000000     0.829220000000    -0.00661949 
C677     C      0.830840000000     0.378790000000     0.804800000000    -0.051975   
C678     C      0.806310000000     0.381080000000     0.798500000000    -0.00691936 
C679     C      0.641860000000     0.324690000000     0.879230000000    -0.00664718 
C680     C      0.647990000000     0.300390000000     0.883150000000    -0.0519613  
C681     C      0.672480000000     0.294290000000     0.885820000000    -0.00694421 
C682     C      0.690380000000     0.312170000000     0.885590000000    -0.00680983 
C683     C      0.684240000000     0.336590000000     0.882710000000    -0.0519825  
C684     C      0.659840000000     0.342650000000     0.879010000000    -0.0066652  
C685     C      0.721790000000     0.392800000000     0.986510000000    -0.00693929 
C686     C      0.742490000000     0.385950000000     0.973660000000    -0.0522026  
C687     C      0.763100000000     0.378570000000     0.986610000000    -0.00653457 
C688     C      0.763050000000     0.378460000000     0.011990000000    -0.00674578 
C689     C      0.742370000000     0.385720000000     0.024740000000    -0.0520875  
C690     C      0.721730000000     0.392680000000     0.011680000000    -0.00702281 
C691     C      0.716300000000     0.482580000000     0.881710000000    -0.00675699 
C692     C      0.736920000000     0.469940000000     0.889420000000    -0.0520918  
C693     C      0.757560000000     0.483110000000     0.896660000000    -0.00707944 
C694     C      0.757540000000     0.508280000000     0.896600000000    -0.00680516 
C695     C      0.736890000000     0.521030000000     0.889320000000    -0.0523408  
C696     C      0.716290000000     0.507960000000     0.881660000000    -0.00648793 
C697     C      0.337450000000     0.665440000000     0.119890000000    -0.00658609 
C698     C      0.331320000000     0.689740000000     0.115990000000    -0.0519545  
C699     C      0.306830000000     0.695840000000     0.113340000000    -0.00695858 
C700     C      0.288940000000     0.677960000000     0.113560000000    -0.00678762 
C701     C      0.295080000000     0.653540000000     0.116420000000    -0.0519544  
C702     C      0.319470000000     0.647470000000     0.120100000000    -0.00670799 
C703     C      0.375940000000     0.794340000000     0.182370000000    -0.00688835 
C704     C      0.373250000000     0.800440000000     0.157890000000    -0.0520003  
C705     C      0.369310000000     0.824740000000     0.151760000000    -0.00671383 
C706     C      0.369100000000     0.842690000000     0.169750000000    -0.00649514 
C707     C      0.372820000000     0.836640000000     0.194130000000    -0.052104   
C708     C      0.375720000000     0.812220000000     0.200270000000    -0.00679388 
C709     C      0.375600000000     0.794020000000     0.816230000000    -0.00682712 
C710     C      0.373300000000     0.800310000000     0.840750000000    -0.0519996  
C711     C      0.369950000000     0.824730000000     0.847040000000    -0.0066954  
C712     C      0.369950000000     0.842590000000     0.829180000000    -0.00660387 
C713     C      0.373300000000     0.836310000000     0.804760000000    -0.0520403  
C714     C      0.375600000000     0.811790000000     0.798460000000    -0.00686023 
C715     C      0.306720000000     0.695830000000     0.885520000000    -0.00679662 
C716     C      0.331140000000     0.689700000000     0.882640000000    -0.052049   
C717     C      0.337210000000     0.665310000000     0.878940000000    -0.00661416 
C718     C      0.319250000000     0.647320000000     0.879150000000    -0.00669457 
C719     C      0.294940000000     0.653450000000     0.883080000000    -0.0520702  
C720     C      0.288840000000     0.677930000000     0.885740000000    -0.00688545 
C721     C      0.373120000000     0.768550000000     0.986550000000    -0.00647611 
C722     C      0.380510000000     0.747950000000     0.973590000000    -0.0523989  
C723     C      0.387370000000     0.727250000000     0.986440000000    -0.00684084 
C724     C      0.387260000000     0.727190000000     0.011610000000    -0.00700635 
C725     C      0.380290000000     0.747830000000     0.024680000000    -0.0521745  
C726     C      0.373010000000     0.768490000000     0.011930000000    -0.00665634 
C727     C      0.603670000000     0.794370000000     0.182400000000    -0.00692497 
C728     C      0.606560000000     0.800510000000     0.157980000000    -0.0519203  
C729     C      0.610260000000     0.824890000000     0.151910000000    -0.00662764 
C730     C      0.610050000000     0.842880000000     0.169870000000    -0.00673873 
C731     C      0.606120000000     0.836750000000     0.194170000000    -0.051918   
C732     C      0.603450000000     0.812270000000     0.200270000000    -0.00684535 
C733     C      0.672990000000     0.696180000000     0.113560000000    -0.00683032 
C734     C      0.648460000000     0.689880000000     0.115850000000    -0.0519955  
C735     C      0.642180000000     0.665470000000     0.119190000000    -0.00655421 
C736     C      0.660030000000     0.647610000000     0.119190000000    -0.00672763 
C737     C      0.684450000000     0.653890000000     0.115850000000    -0.0518906  
C738     C      0.690760000000     0.678410000000     0.113560000000    -0.00693524 
C739     C      0.502660000000     0.721650000000     0.116040000000    -0.00660785 
C740     C      0.515610000000     0.742230000000     0.108580000000    -0.0521498  
C741     C      0.502760000000     0.762900000000     0.101660000000    -0.00697728 
C742     C      0.477590000000     0.762960000000     0.101790000000    -0.00684272 
C743     C      0.464520000000     0.742350000000     0.108820000000    -0.0523194  
C744     C      0.477280000000     0.721700000000     0.116150000000    -0.00661744 
C745     C      0.610720000000     0.824600000000     0.846950000000    -0.00666902 
C746     C      0.606860000000     0.800200000000     0.840670000000    -0.0518681  
C747     C      0.604050000000     0.793910000000     0.816160000000    -0.00692579 
C748     C      0.604050000000     0.811680000000     0.798390000000    -0.00687316 
C749     C      0.606860000000     0.836190000000     0.804690000000    -0.0519203  
C750     C      0.610720000000     0.842460000000     0.829090000000    -0.00666358 
C751     C      0.642160000000     0.665460000000     0.878440000000    -0.00663056 
C752     C      0.648440000000     0.689880000000     0.882240000000    -0.0520426  
C753     C      0.672960000000     0.696170000000     0.885000000000    -0.00685564 
C754     C      0.690730000000     0.678390000000     0.885000000000    -0.00683236 
C755     C      0.684430000000     0.653880000000     0.882240000000    -0.0519557  
C756     C      0.660020000000     0.647600000000     0.878440000000    -0.00668513 
C757     C      0.502840000000     0.763000000000     0.896560000000    -0.0069402  
C758     C      0.515590000000     0.742350000000     0.889280000000    -0.0521851  
C759     C      0.502520000000     0.721750000000     0.881620000000    -0.00664725 
C760     C      0.477140000000     0.721770000000     0.881660000000    -0.00656382 
C761     C      0.464500000000     0.742390000000     0.889360000000    -0.0522268  
C762     C      0.477660000000     0.763020000000     0.896600000000    -0.00692945 
C763     C      0.592730000000     0.727100000000     0.986310000000    -0.00693564 
C764     C      0.599950000000     0.747760000000     0.973540000000    -0.0521934  
C765     C      0.607560000000     0.768390000000     0.986600000000    -0.00663288 
C766     C      0.607530000000     0.768380000000     0.011970000000    -0.00659262 
C767     C      0.599880000000     0.747760000000     0.024630000000    -0.0521269  
C768     C      0.592690000000     0.727100000000     0.011480000000    -0.00696873 
Cd1      Cd     0.594180000000     0.745040000000     0.894960000000     0.512217   
Cd2      Cd     0.594140000000     0.745010000000     0.103110000000     0.512121   
Cd3      Cd     0.386010000000     0.745180000000     0.895070000000     0.512218   
Cd4      Cd     0.385960000000     0.745090000000     0.103230000000     0.512146   
Cd5      Cd     0.739720000000     0.391470000000     0.895130000000     0.512143   
Cd6      Cd     0.739640000000     0.391400000000     0.103300000000     0.512175   
Cd7      Cd     0.739590000000     0.599610000000     0.894970000000     0.512198   
Cd8      Cd     0.739570000000     0.599560000000     0.103120000000     0.512182   
Cd9      Cd     0.593400000000     0.891400000000     0.249520000000     0.512153   
Cd10     Cd     0.593260000000     0.099560000000     0.249500000000     0.512176   
Cd11     Cd     0.385100000000     0.099650000000     0.249540000000     0.512203   
Cd12     Cd     0.385220000000     0.891510000000     0.249620000000     0.512185   
Cd13     Cd     0.385160000000     0.245190000000     0.895970000000     0.512172   
Cd14     Cd     0.385070000000     0.245090000000     0.104120000000     0.512223   
Cd15     Cd     0.593340000000     0.245040000000     0.895900000000     0.512123   
Cd16     Cd     0.593230000000     0.245010000000     0.104070000000     0.512164   
Cd17     Cd     0.094230000000     0.390550000000     0.249560000000     0.512219   
Cd18     Cd     0.886080000000     0.390650000000     0.249690000000     0.512188   
Cd19     Cd     0.885980000000     0.598810000000     0.249540000000     0.512136   
Cd20     Cd     0.094150000000     0.598690000000     0.249460000000     0.512178   
Cd21     Cd     0.239600000000     0.598800000000     0.895830000000     0.512153   
Cd22     Cd     0.239580000000     0.598670000000     0.103990000000     0.51219    
Cd23     Cd     0.239650000000     0.390530000000     0.104090000000     0.512213   
Cd24     Cd     0.239740000000     0.390640000000     0.895950000000     0.512193   
Cd25     Cd     0.885050000000     0.745070000000     0.604090000000     0.512218   
Cd26     Cd     0.093210000000     0.745030000000     0.604000000000     0.512179   
Cd27     Cd     0.885210000000     0.745200000000     0.395940000000     0.512149   
Cd28     Cd     0.093390000000     0.745110000000     0.395830000000     0.512137   
Cd29     Cd     0.093330000000     0.391430000000     0.749530000000     0.512152   
Cd30     Cd     0.885150000000     0.391500000000     0.749670000000     0.512138   
Cd31     Cd     0.885020000000     0.599640000000     0.749510000000     0.512217   
Cd32     Cd     0.093170000000     0.599590000000     0.749430000000     0.512164   
Cd33     Cd     0.239650000000     0.099680000000     0.394960000000     0.512235   
Cd34     Cd     0.239770000000     0.891540000000     0.395060000000     0.512163   
Cd35     Cd     0.239610000000     0.891440000000     0.603230000000     0.512151   
Cd36     Cd     0.239560000000     0.099590000000     0.603120000000     0.512179   
Cd37     Cd     0.094220000000     0.245120000000     0.394980000000     0.512172   
Cd38     Cd     0.886070000000     0.245220000000     0.395120000000     0.512145   
Cd39     Cd     0.885950000000     0.245070000000     0.603300000000     0.512152   
Cd40     Cd     0.094120000000     0.245040000000     0.603130000000     0.512179   
Cd41     Cd     0.739620000000     0.890510000000     0.604120000000     0.512213   
Cd42     Cd     0.739570000000     0.098640000000     0.604080000000     0.512171   
Cd43     Cd     0.739670000000     0.098810000000     0.395910000000     0.512135   
Cd44     Cd     0.739770000000     0.890650000000     0.395970000000     0.512161   
Cd45     Cd     0.386020000000     0.890640000000     0.749640000000     0.512159   
Cd46     Cd     0.385930000000     0.098790000000     0.749560000000     0.512155   
Cd47     Cd     0.594180000000     0.890490000000     0.749540000000     0.51225    
Cd48     Cd     0.594110000000     0.098620000000     0.749520000000     0.512182   
H1       H      0.613220000000     0.972760000000     0.789090000000     0.0575489  
H2       H      0.586810000000     0.972380000000     0.715370000000     0.0579434  
H3       H      0.586740000000     0.016140000000     0.715370000000     0.0579417  
H4       H      0.613160000000     0.017160000000     0.789080000000     0.0575958  
H5       H      0.468330000000     0.091670000000     0.783700000000     0.0579333  
H6       H      0.467670000000     0.117210000000     0.710020000000     0.0575757  
H7       H      0.512070000000     0.117000000000     0.709930000000     0.0575443  
H8       H      0.512100000000     0.091450000000     0.783600000000     0.0579357  
H9       H      0.367690000000     0.972680000000     0.789230000000     0.0575556  
H10      H      0.393100000000     0.972630000000     0.715510000000     0.0579488  
H11      H      0.392910000000     0.016400000000     0.715410000000     0.0579364  
H12      H      0.367510000000     0.017080000000     0.789130000000     0.0575756  
H13      H      0.468530000000     0.898090000000     0.783730000000     0.0579378  
H14      H      0.467470000000     0.871540000000     0.710060000000     0.0575507  
H15      H      0.511870000000     0.871460000000     0.710040000000     0.0575735  
H16      H      0.512300000000     0.898000000000     0.783710000000     0.0579672  
H17      H      0.705520000000     0.016400000000     0.402880000000     0.0579411  
H18      H      0.779260000000     0.017100000000     0.377490000000     0.0575672  
H19      H      0.779360000000     0.972710000000     0.377670000000     0.0575669  
H20      H      0.705630000000     0.972640000000     0.403060000000     0.0579348  
H21      H      0.709400000000     0.106590000000     0.688410000000     0.0578362  
H22      H      0.654620000000     0.116570000000     0.633370000000     0.0579701  
H23      H      0.623410000000     0.116560000000     0.664570000000     0.057973   
H24      H      0.678440000000     0.106590000000     0.719360000000     0.0578585  
H25      H      0.773690000000     0.091490000000     0.522080000000     0.0578993  
H26      H      0.700000000000     0.117010000000     0.522030000000     0.0575396  
H27      H      0.700100000000     0.117210000000     0.477630000000     0.0575983  
H28      H      0.773790000000     0.091700000000     0.478310000000     0.0579565  
H29      H      0.709400000000     0.883380000000     0.688380000000     0.0578858  
H30      H      0.654640000000     0.871750000000     0.633360000000     0.0579576  
H31      H      0.623430000000     0.871750000000     0.664570000000     0.0579281  
H32      H      0.678450000000     0.883380000000     0.719330000000     0.0578106  
H33      H      0.700140000000     0.871480000000     0.521810000000     0.0575841  
H34      H      0.773810000000     0.898010000000     0.522250000000     0.0579722  
H35      H      0.773840000000     0.898090000000     0.478480000000     0.0579486  
H36      H      0.700170000000     0.871550000000     0.477400000000     0.0575683  
H37      H      0.705440000000     0.972390000000     0.596750000000     0.0579218  
H38      H      0.779150000000     0.972780000000     0.623190000000     0.057559   
H39      H      0.779140000000     0.017180000000     0.623130000000     0.0575941  
H40      H      0.705440000000     0.016150000000     0.596690000000     0.0579784  
H41      H      0.801460000000     0.214370000000     0.610450000000     0.0578198  
H42      H      0.856160000000     0.160180000000     0.622120000000     0.0579382  
H43      H      0.824730000000     0.128790000000     0.622490000000     0.0579824  
H44      H      0.770290000000     0.183240000000     0.610830000000     0.0578663  
H45      H      0.968340000000     0.279250000000     0.596290000000     0.0579271  
H46      H      0.967680000000     0.205520000000     0.621690000000     0.0575643  
H47      H      0.012080000000     0.205430000000     0.621480000000     0.0575453  
H48      H      0.012110000000     0.279150000000     0.596080000000     0.0579367  
H49      H      0.855930000000     0.160060000000     0.376700000000     0.0579738  
H50      H      0.801460000000     0.214480000000     0.388420000000     0.0578453  
H51      H      0.770340000000     0.183300000000     0.388800000000     0.0578375  
H52      H      0.824550000000     0.128630000000     0.377070000000     0.0579566  
H53      H      0.893260000000     0.211090000000     0.477120000000     0.0579543  
H54      H      0.867700000000     0.284760000000     0.477190000000     0.0575566  
H55      H      0.867500000000     0.284640000000     0.521590000000     0.0575836  
H56      H      0.893050000000     0.210970000000     0.520880000000     0.0579413  
H57      H      0.012350000000     0.279320000000     0.402380000000     0.0579465  
H58      H      0.011920000000     0.205610000000     0.375950000000     0.0575564  
H59      H      0.967520000000     0.205630000000     0.376030000000     0.0575817  
H60      H      0.968580000000     0.279330000000     0.402470000000     0.0579796  
H61      H      0.113290000000     0.284620000000     0.477270000000     0.0575621  
H62      H      0.086720000000     0.210960000000     0.476860000000     0.0579625  
H63      H      0.086640000000     0.210950000000     0.520630000000     0.0579541  
H64      H      0.113220000000     0.284600000000     0.521670000000     0.0575711  
H65      H      0.209400000000     0.183910000000     0.611040000000     0.0578875  
H66      H      0.154620000000     0.128890000000     0.621060000000     0.0579805  
H67      H      0.123420000000     0.160100000000     0.621060000000     0.0579599  
H68      H      0.178450000000     0.214870000000     0.611050000000     0.0578181  
H69      H      0.324730000000     0.117980000000     0.633260000000     0.0579332  
H70      H      0.270280000000     0.106370000000     0.687720000000     0.0578386  
H71      H      0.301450000000     0.105990000000     0.718860000000     0.0578592  
H72      H      0.356150000000     0.117610000000     0.664660000000     0.0579997  
H73      H      0.324500000000     0.872600000000     0.633050000000     0.0579481  
H74      H      0.270280000000     0.884270000000     0.687720000000     0.0578005  
H75      H      0.301410000000     0.883890000000     0.718900000000     0.0578884  
H76      H      0.355880000000     0.872230000000     0.664480000000     0.0579816  
H77      H      0.273780000000     0.973830000000     0.596240000000     0.057954   
H78      H      0.200050000000     0.973150000000     0.621620000000     0.0576004  
H79      H      0.199960000000     0.017550000000     0.621440000000     0.0575436  
H80      H      0.273690000000     0.017590000000     0.596040000000     0.0579152  
H81      H      0.279320000000     0.873200000000     0.477120000000     0.0575162  
H82      H      0.205630000000     0.898730000000     0.477050000000     0.0579264  
H83      H      0.205510000000     0.898520000000     0.520810000000     0.0579369  
H84      H      0.279200000000     0.873010000000     0.521520000000     0.057616   
H85      H      0.154680000000     0.128940000000     0.376190000000     0.0579511  
H86      H      0.209440000000     0.183940000000     0.387920000000     0.05788    
H87      H      0.178490000000     0.214890000000     0.387930000000     0.0578422  
H88      H      0.123480000000     0.160150000000     0.376190000000     0.0579471  
H89      H      0.273850000000     0.017810000000     0.402360000000     0.0579599  
H90      H      0.200140000000     0.017390000000     0.375920000000     0.0575397  
H91      H      0.200170000000     0.972980000000     0.375980000000     0.0575723  
H92      H      0.273880000000     0.974050000000     0.402430000000     0.0579428  
H93      H      0.205480000000     0.092200000000     0.476850000000     0.0579462  
H94      H      0.279160000000     0.118740000000     0.477260000000     0.0575479  
H95      H      0.279140000000     0.118670000000     0.521660000000     0.0575598  
H96      H      0.205470000000     0.092130000000     0.520610000000     0.0579417  
H97      H      0.966900000000     0.592310000000     0.715310000000     0.0579943  
H98      H      0.967310000000     0.618690000000     0.789030000000     0.0575878  
H99      H      0.011710000000     0.618630000000     0.789020000000     0.0575449  
H100     H      0.010670000000     0.592250000000     0.715290000000     0.0579019  
H101     H      0.878400000000     0.306890000000     0.718960000000     0.0578453  
H102     H      0.866720000000     0.361340000000     0.664520000000     0.0579828  
H103     H      0.867090000000     0.329950000000     0.633090000000     0.0579595  
H104     H      0.878780000000     0.275760000000     0.687790000000     0.0578186  
H105     H      0.866030000000     0.472930000000     0.710080000000     0.0575753  
H106     H      0.892650000000     0.474010000000     0.783720000000     0.0579345  
H107     H      0.892570000000     0.517770000000     0.783680000000     0.0579793  
H108     H      0.865960000000     0.517330000000     0.710040000000     0.0575572  
H109     H      0.112140000000     0.361630000000     0.664640000000     0.0579907  
H110     H      0.100540000000     0.306940000000     0.718860000000     0.0578184  
H111     H      0.100920000000     0.275770000000     0.687730000000     0.05784    
H112     H      0.112510000000     0.330200000000     0.633250000000     0.0579393  
H113     H      0.011620000000     0.373030000000     0.789140000000     0.0575517  
H114     H      0.010910000000     0.398350000000     0.715380000000     0.0579294  
H115     H      0.967140000000     0.398550000000     0.715500000000     0.0579428  
H116     H      0.967220000000     0.373210000000     0.789240000000     0.0575861  
H117     H      0.086170000000     0.473830000000     0.783640000000     0.0579227  
H118     H      0.111750000000     0.473140000000     0.709970000000     0.0575556  
H119     H      0.111550000000     0.517540000000     0.709870000000     0.0575509  
H120     H      0.085960000000     0.517590000000     0.783530000000     0.0579585  
H121     H      0.154620000000     0.861380000000     0.376610000000     0.0579882  
H122     H      0.209050000000     0.806940000000     0.388360000000     0.0578569  
H123     H      0.177880000000     0.775810000000     0.388730000000     0.057812   
H124     H      0.123190000000     0.829990000000     0.376980000000     0.0579694  
H125     H      0.855930000000     0.830160000000     0.378040000000     0.0579904  
H126     H      0.800890000000     0.775380000000     0.388000000000     0.0578508  
H127     H      0.769940000000     0.806340000000     0.388010000000     0.0578498  
H128     H      0.824730000000     0.861360000000     0.378050000000     0.0579543  
H129     H      0.967270000000     0.784790000000     0.377610000000     0.0575602  
H130     H      0.967210000000     0.711050000000     0.402980000000     0.0579215  
H131     H      0.010980000000     0.710950000000     0.402780000000     0.0579386  
H132     H      0.011670000000     0.784690000000     0.377420000000     0.0575731  
H133     H      0.177810000000     0.775770000000     0.610740000000     0.0578291  
H134     H      0.123330000000     0.830190000000     0.622410000000     0.0579355  
H135     H      0.154720000000     0.861620000000     0.622040000000     0.0580136  
H136     H      0.208930000000     0.806950000000     0.610370000000     0.0578542  
H137     H      0.111120000000     0.660080000000     0.633280000000     0.0579547  
H138     H      0.101190000000     0.714860000000     0.688330000000     0.0578332  
H139     H      0.101180000000     0.683910000000     0.719280000000     0.0578485  
H140     H      0.111100000000     0.628880000000     0.664480000000     0.057967   
H141     H      0.086000000000     0.779120000000     0.522000000000     0.0579454  
H142     H      0.111610000000     0.705470000000     0.521960000000     0.0575361  
H143     H      0.111820000000     0.705570000000     0.477560000000     0.0575686  
H144     H      0.086220000000     0.779230000000     0.478230000000     0.0579256  
H145     H      0.800780000000     0.775290000000     0.611090000000     0.0578712  
H146     H      0.855780000000     0.830020000000     0.622910000000     0.0579436  
H147     H      0.824580000000     0.861220000000     0.622920000000     0.0579559  
H148     H      0.769830000000     0.806240000000     0.611100000000     0.0578707  
H149     H      0.866290000000     0.660100000000     0.633330000000     0.0579944  
H150     H      0.877900000000     0.714850000000     0.688350000000     0.057893   
H151     H      0.877890000000     0.683900000000     0.719300000000     0.0578331  
H152     H      0.866280000000     0.628890000000     0.664530000000     0.0579398  
H153     H      0.892610000000     0.779240000000     0.522220000000     0.0579662  
H154     H      0.866010000000     0.705590000000     0.521780000000     0.0575698  
H155     H      0.866090000000     0.705630000000     0.477380000000     0.0575738  
H156     H      0.892700000000     0.779270000000     0.478450000000     0.0579272  
H157     H      0.967340000000     0.784600000000     0.623140000000     0.0575683  
H158     H      0.966940000000     0.710890000000     0.596740000000     0.05798    
H159     H      0.010710000000     0.710880000000     0.596660000000     0.0579147  
H160     H      0.011740000000     0.784600000000     0.623060000000     0.0575401  
H161     H      0.154580000000     0.372210000000     0.865800000000     0.0579749  
H162     H      0.209000000000     0.383970000000     0.811340000000     0.0578585  
H163     H      0.177820000000     0.384350000000     0.780210000000     0.0578015  
H164     H      0.123150000000     0.372580000000     0.834410000000     0.0579587  
H165     H      0.200120000000     0.371510000000     0.021800000000     0.0575508  
H166     H      0.273870000000     0.397840000000     0.022220000000     0.0579643  
H167     H      0.273880000000     0.397920000000     0.978450000000     0.0579446  
H168     H      0.200140000000     0.371590000000     0.977400000000     0.0575772  
H169     H      0.205510000000     0.516170000000     0.096450000000     0.0579583  
H170     H      0.279140000000     0.517210000000     0.123090000000     0.057588   
H171     H      0.279160000000     0.472810000000     0.123160000000     0.0575376  
H172     H      0.205520000000     0.472410000000     0.096530000000     0.0579424  
H173     H      0.208910000000     0.605910000000     0.811340000000     0.0578461  
H174     H      0.154710000000     0.617630000000     0.866020000000     0.0579599  
H175     H      0.123320000000     0.618000000000     0.834600000000     0.0579671  
H176     H      0.177780000000     0.606290000000     0.780170000000     0.0578368  
H177     H      0.279170000000     0.517090000000     0.877370000000     0.0575756  
H178     H      0.205520000000     0.516390000000     0.903010000000     0.0579217  
H179     H      0.205640000000     0.472630000000     0.903210000000     0.0579441  
H180     H      0.279280000000     0.472690000000     0.877570000000     0.0575447  
H181     H      0.273810000000     0.591890000000     0.978220000000     0.0579239  
H182     H      0.200040000000     0.617170000000     0.977560000000     0.0575793  
H183     H      0.199950000000     0.616980000000     0.021960000000     0.0575404  
H184     H      0.273720000000     0.591680000000     0.021990000000     0.0579437  
H185     H      0.123450000000     0.616620000000     0.164520000000     0.0579666  
H186     H      0.178480000000     0.606560000000     0.219290000000     0.0578476  
H187     H      0.209430000000     0.606550000000     0.188320000000     0.0578464  
H188     H      0.154640000000     0.616620000000     0.133310000000     0.0579579  
H189     H      0.112560000000     0.628830000000     0.334630000000     0.0579768  
H190     H      0.100980000000     0.683290000000     0.280180000000     0.057856   
H191     H      0.100600000000     0.714420000000     0.311350000000     0.0578282  
H192     H      0.112200000000     0.660220000000     0.366050000000     0.0579515  
H193     H      0.867150000000     0.628630000000     0.334420000000     0.0579912  
H194     H      0.878800000000     0.683300000000     0.280200000000     0.0578359  
H195     H      0.878430000000     0.714480000000     0.311330000000     0.0578375  
H196     H      0.866790000000     0.660050000000     0.365810000000     0.0579399  
H197     H      0.967700000000     0.617190000000     0.209950000000     0.0575935  
H198     H      0.968380000000     0.591900000000     0.283720000000     0.0579312  
H199     H      0.012150000000     0.591690000000     0.283620000000     0.0579214  
H200     H      0.012100000000     0.617000000000     0.209860000000     0.0575241  
H201     H      0.868180000000     0.361380000000     0.334650000000     0.0579566  
H202     H      0.878040000000     0.306340000000     0.279850000000     0.0578258  
H203     H      0.878040000000     0.275390000000     0.310810000000     0.0578554  
H204     H      0.868180000000     0.330180000000     0.365850000000     0.0579697  
H205     H      0.867710000000     0.472710000000     0.289230000000     0.0575522  
H206     H      0.893340000000     0.472640000000     0.215580000000     0.0579324  
H207     H      0.893140000000     0.516400000000     0.215460000000     0.0579377  
H208     H      0.867530000000     0.517110000000     0.289110000000     0.057578   
H209     H      0.101330000000     0.306280000000     0.279760000000     0.0578703  
H210     H      0.113010000000     0.361290000000     0.334520000000     0.0579372  
H211     H      0.113010000000     0.330080000000     0.365730000000     0.0579486  
H212     H      0.101320000000     0.275330000000     0.310710000000     0.0578584  
H213     H      0.123480000000     0.371760000000     0.164590000000     0.0579568  
H214     H      0.178500000000     0.383540000000     0.219320000000     0.0578426  
H215     H      0.209440000000     0.383540000000     0.188370000000     0.0578496  
H216     H      0.154690000000     0.371750000000     0.133370000000     0.0579222  
H217     H      0.011920000000     0.371530000000     0.210050000000     0.0575792  
H218     H      0.012360000000     0.397880000000     0.283790000000     0.0579658  
H219     H      0.968590000000     0.397950000000     0.283810000000     0.0579346  
H220     H      0.967520000000     0.371600000000     0.210080000000     0.0575357  
H221     H      0.113320000000     0.472830000000     0.289050000000     0.0575419  
H222     H      0.086670000000     0.472420000000     0.215410000000     0.0579447  
H223     H      0.086600000000     0.516190000000     0.215400000000     0.0579577  
H224     H      0.113250000000     0.517240000000     0.289030000000     0.0575698  
H225     H      0.600480000000     0.214350000000     0.811420000000     0.0578236  
H226     H      0.612150000000     0.160150000000     0.866110000000     0.0579703  
H227     H      0.612520000000     0.128760000000     0.834680000000     0.0579665  
H228     H      0.600860000000     0.183220000000     0.780250000000     0.0578378  
H229     H      0.611740000000     0.205490000000     0.977630000000     0.0576076  
H230     H      0.586390000000     0.279230000000     0.978300000000     0.0579421  
H231     H      0.586200000000     0.279140000000     0.022060000000     0.0579174  
H232     H      0.611560000000     0.205400000000     0.022030000000     0.0575392  
H233     H      0.300800000000     0.275310000000     0.111230000000     0.0578778  
H234     H      0.355820000000     0.330060000000     0.122880000000     0.0579859  
H235     H      0.324620000000     0.361270000000     0.122870000000     0.0579268  
H236     H      0.269850000000     0.306260000000     0.111220000000     0.0578314  
H237     H      0.467360000000     0.284580000000     0.123210000000     0.0575714  
H238     H      0.466960000000     0.210940000000     0.096600000000     0.0579554  
H239     H      0.510730000000     0.210920000000     0.096540000000     0.0579236  
H240     H      0.511770000000     0.284560000000     0.123160000000     0.0575813  
H241     H      0.355900000000     0.330140000000     0.878070000000     0.0579509  
H242     H      0.300840000000     0.275360000000     0.887930000000     0.0578228  
H243     H      0.269890000000     0.306320000000     0.887920000000     0.0578579  
H244     H      0.324700000000     0.361350000000     0.878060000000     0.0579729  
H245     H      0.378460000000     0.214450000000     0.811370000000     0.0578746  
H246     H      0.366720000000     0.160040000000     0.865830000000     0.057999   
H247     H      0.367080000000     0.128610000000     0.834440000000     0.0579519  
H248     H      0.378840000000     0.183280000000     0.780240000000     0.0578247  
H249     H      0.366090000000     0.205600000000     0.977420000000     0.0575484  
H250     H      0.392490000000     0.279320000000     0.978470000000     0.0578988  
H251     H      0.392420000000     0.279290000000     0.022240000000     0.0579816  
H252     H      0.366030000000     0.205580000000     0.021830000000     0.0575717  
H253     H      0.467160000000     0.211070000000     0.903220000000     0.0579383  
H254     H      0.467230000000     0.284720000000     0.877610000000     0.0575251  
H255     H      0.511630000000     0.284610000000     0.877440000000     0.0576012  
H256     H      0.510920000000     0.210950000000     0.903030000000     0.0579431  
H257     H      0.355940000000     0.873620000000     0.334580000000     0.0579293  
H258     H      0.300900000000     0.883530000000     0.279790000000     0.0578499  
H259     H      0.269940000000     0.883540000000     0.310740000000     0.0578473  
H260     H      0.324730000000     0.873630000000     0.365780000000     0.0579733  
H261     H      0.300820000000     0.106730000000     0.279750000000     0.0578487  
H262     H      0.355830000000     0.118440000000     0.334500000000     0.057964   
H263     H      0.324620000000     0.118450000000     0.365710000000     0.0579507  
H264     H      0.269870000000     0.106740000000     0.310690000000     0.0578509  
H265     H      0.378050000000     0.183910000000     0.219330000000     0.0578473  
H266     H      0.366310000000     0.128920000000     0.164580000000     0.057963   
H267     H      0.366300000000     0.160130000000     0.133370000000     0.0579465  
H268     H      0.378050000000     0.214860000000     0.188380000000     0.0578861  
H269     H      0.366080000000     0.017360000000     0.210020000000     0.0575923  
H270     H      0.392500000000     0.017770000000     0.283730000000     0.0579937  
H271     H      0.392580000000     0.974010000000     0.283740000000     0.0579184  
H272     H      0.366150000000     0.972960000000     0.210030000000     0.0575302  
H273     H      0.611200000000     0.128870000000     0.164560000000     0.0579745  
H274     H      0.601150000000     0.183880000000     0.219350000000     0.0578484  
H275     H      0.601140000000     0.214840000000     0.188400000000     0.0578305  
H276     H      0.611190000000     0.160070000000     0.133360000000     0.0579688  
H277     H      0.623380000000     0.117950000000     0.334670000000     0.0579979  
H278     H      0.677860000000     0.106360000000     0.280240000000     0.0578569  
H279     H      0.708990000000     0.105990000000     0.311420000000     0.0578209  
H280     H      0.654770000000     0.117600000000     0.366100000000     0.0579713  
H281     H      0.511790000000     0.118630000000     0.289060000000     0.0575466  
H282     H      0.510760000000     0.092090000000     0.215390000000     0.0579316  
H283     H      0.466990000000     0.092170000000     0.215390000000     0.057966   
H284     H      0.467390000000     0.118700000000     0.289070000000     0.0575851  
H285     H      0.623200000000     0.872570000000     0.334410000000     0.0579804  
H286     H      0.677890000000     0.884260000000     0.280210000000     0.0578235  
H287     H      0.709060000000     0.883900000000     0.311350000000     0.0578349  
H288     H      0.654620000000     0.872220000000     0.365810000000     0.0579466  
H289     H      0.510990000000     0.898490000000     0.215400000000     0.057938   
H290     H      0.511680000000     0.872960000000     0.289080000000     0.0575819  
H291     H      0.467280000000     0.873150000000     0.289180000000     0.0575442  
H292     H      0.467220000000     0.898700000000     0.215510000000     0.0579389  
H293     H      0.611810000000     0.973130000000     0.209970000000     0.0575327  
H294     H      0.586390000000     0.973780000000     0.283690000000     0.0579293  
H295     H      0.586190000000     0.017550000000     0.283610000000     0.0579577  
H296     H      0.611610000000     0.017530000000     0.209890000000     0.0575554  
H297     H      0.770310000000     0.606280000000     0.187720000000     0.0578473  
H298     H      0.824740000000     0.617980000000     0.133250000000     0.0579646  
H299     H      0.856170000000     0.617620000000     0.164640000000     0.0579776  
H300     H      0.801490000000     0.605910000000     0.218850000000     0.0578259  
H301     H      0.769800000000     0.606590000000     0.810690000000     0.0578407  
H302     H      0.824550000000     0.618430000000     0.865680000000     0.0579338  
H303     H      0.855750000000     0.618440000000     0.834470000000     0.0579807  
H304     H      0.800740000000     0.606600000000     0.779740000000     0.0578859  
H305     H      0.705410000000     0.592290000000     0.976860000000     0.0579455  
H306     H      0.779150000000     0.618640000000     0.977250000000     0.0575443  
H307     H      0.779140000000     0.618580000000     0.021650000000     0.0575819  
H308     H      0.705410000000     0.592230000000     0.020630000000     0.0579671  
H309     H      0.654740000000     0.361600000000     0.122110000000     0.0579729  
H310     H      0.708970000000     0.306920000000     0.110520000000     0.0578506  
H311     H      0.677840000000     0.275740000000     0.110890000000     0.0578285  
H312     H      0.623350000000     0.330170000000     0.122470000000     0.057959   
H313     H      0.824530000000     0.372550000000     0.133120000000     0.0579431  
H314     H      0.770330000000     0.384340000000     0.187790000000     0.0578404  
H315     H      0.801460000000     0.383980000000     0.218960000000     0.0578548  
H316     H      0.855920000000     0.372200000000     0.164540000000     0.0579709  
H317     H      0.700090000000     0.473120000000     0.121720000000     0.0575622  
H318     H      0.773750000000     0.473790000000     0.096120000000     0.057941   
H319     H      0.773650000000     0.517550000000     0.095900000000     0.0579542  
H320     H      0.700000000000     0.517520000000     0.121520000000     0.057561   
H321     H      0.769880000000     0.383550000000     0.810810000000     0.0578404  
H322     H      0.824670000000     0.373570000000     0.865830000000     0.0579742  
H323     H      0.855880000000     0.373580000000     0.834620000000     0.0579556  
H324     H      0.800830000000     0.383560000000     0.779850000000     0.0578676  
H325     H      0.623140000000     0.329930000000     0.877070000000     0.0579768  
H326     H      0.677830000000     0.275730000000     0.888720000000     0.0578599  
H327     H      0.709010000000     0.306860000000     0.888350000000     0.0578427  
H328     H      0.654560000000     0.361320000000     0.876710000000     0.0579787  
H329     H      0.705570000000     0.398500000000     0.977130000000     0.0579437  
H330     H      0.779320000000     0.373170000000     0.977180000000     0.0575305  
H331     H      0.779220000000     0.372990000000     0.021580000000     0.05761    
H332     H      0.705470000000     0.398310000000     0.020890000000     0.057956   
H333     H      0.700140000000     0.472910000000     0.876020000000     0.0576176  
H334     H      0.773780000000     0.473980000000     0.902630000000     0.0579829  
H335     H      0.773760000000     0.517740000000     0.902540000000     0.0579261  
H336     H      0.700110000000     0.517310000000     0.875930000000     0.0575303  
H337     H      0.356180000000     0.660190000000     0.122030000000     0.0579442  
H338     H      0.301480000000     0.714400000000     0.110450000000     0.0578671  
H339     H      0.270300000000     0.683270000000     0.110820000000     0.0578234  
H340     H      0.324750000000     0.628800000000     0.122390000000     0.0579896  
H341     H      0.378860000000     0.775780000000     0.187730000000     0.0578379  
H342     H      0.367140000000     0.829980000000     0.133040000000     0.0579834  
H343     H      0.366780000000     0.861370000000     0.164470000000     0.0579289  
H344     H      0.378500000000     0.806910000000     0.218900000000     0.0578285  
H345     H      0.378070000000     0.775360000000     0.810750000000     0.0578331  
H346     H      0.368100000000     0.830130000000     0.865790000000     0.0579786  
H347     H      0.368090000000     0.861340000000     0.834590000000     0.0579503  
H348     H      0.378070000000     0.806320000000     0.779800000000     0.0578464  
H349     H      0.301410000000     0.714460000000     0.888280000000     0.057836   
H350     H      0.355880000000     0.660030000000     0.876640000000     0.0579663  
H351     H      0.324490000000     0.628610000000     0.877000000000     0.0579933  
H352     H      0.270280000000     0.683280000000     0.888650000000     0.0578433  
H353     H      0.367710000000     0.784770000000     0.977120000000     0.0575115  
H354     H      0.393090000000     0.711030000000     0.977060000000     0.0579068  
H355     H      0.392900000000     0.710930000000     0.020830000000     0.0579511  
H356     H      0.367540000000     0.784670000000     0.021520000000     0.0575856  
H357     H      0.600900000000     0.775750000000     0.187710000000     0.0578711  
H358     H      0.612570000000     0.830170000000     0.133240000000     0.057966   
H359     H      0.612210000000     0.861590000000     0.164630000000     0.0579987  
H360     H      0.600540000000     0.806920000000     0.218840000000     0.0578297  
H361     H      0.678470000000     0.714840000000     0.111090000000     0.0578342  
H362     H      0.623420000000     0.660060000000     0.121040000000     0.0579316  
H363     H      0.654620000000     0.628860000000     0.121050000000     0.0579738  
H364     H      0.709420000000     0.683880000000     0.111100000000     0.0578648  
H365     H      0.512090000000     0.705450000000     0.121490000000     0.0575537  
H366     H      0.512140000000     0.779110000000     0.095900000000     0.0579466  
H367     H      0.468370000000     0.779210000000     0.096100000000     0.0579056  
H368     H      0.467690000000     0.705550000000     0.121680000000     0.0575808  
H369     H      0.612990000000     0.829990000000     0.865700000000     0.0579516  
H370     H      0.601170000000     0.775270000000     0.810690000000     0.0578813  
H371     H      0.601170000000     0.806220000000     0.779740000000     0.0578653  
H372     H      0.612990000000     0.861200000000     0.834490000000     0.0579486  
H373     H      0.623410000000     0.660070000000     0.876220000000     0.0579501  
H374     H      0.678440000000     0.714820000000     0.887820000000     0.057858   
H375     H      0.709390000000     0.683870000000     0.887830000000     0.0578408  
H376     H      0.654620000000     0.628860000000     0.876220000000     0.0579677  
H377     H      0.512300000000     0.779220000000     0.902490000000     0.0579569  
H378     H      0.511870000000     0.705570000000     0.875900000000     0.0575665  
H379     H      0.467460000000     0.705600000000     0.875960000000     0.0575526  
H380     H      0.468530000000     0.779250000000     0.902560000000     0.0579372  
H381     H      0.586830000000     0.710870000000     0.976850000000     0.0579609  
H382     H      0.613240000000     0.784580000000     0.977240000000     0.0575582  
H383     H      0.613190000000     0.784570000000     0.021640000000     0.0575559  
H384     H      0.586770000000     0.710860000000     0.020620000000     0.0579442  
O1       O      0.555130000000     0.724860000000     0.883730000000    -0.224514   
O2       O      0.606640000000     0.786030000000     0.881810000000    -0.225255   
O3       O      0.607310000000     0.704040000000     0.882520000000    -0.225365   
O4       O      0.590430000000     0.729290000000     0.935520000000    -0.235863   
O5       O      0.605430000000     0.765250000000     0.933990000000    -0.224504   
O6       O      0.635260000000     0.729950000000     0.891500000000    -0.23482    
O7       O      0.553630000000     0.760800000000     0.898780000000    -0.235781   
O8       O      0.597580000000     0.760130000000     0.853870000000    -0.234756   
O9       O      0.607320000000     0.704000000000     0.115090000000    -0.225287   
O10      O      0.606420000000     0.786110000000     0.116740000000    -0.22534    
O11      O      0.555230000000     0.724780000000     0.113960000000    -0.22439    
O12      O      0.590220000000     0.729300000000     0.062270000000    -0.235703   
O13      O      0.605420000000     0.765180000000     0.064500000000    -0.22448    
O14      O      0.553510000000     0.760630000000     0.099150000000    -0.235735   
O15      O      0.635270000000     0.729990000000     0.107050000000    -0.23472    
O16      O      0.597650000000     0.760280000000     0.144370000000    -0.234863   
O17      O      0.372380000000     0.704090000000     0.882790000000    -0.225396   
O18      O      0.374040000000     0.786190000000     0.881890000000    -0.22543    
O19      O      0.424620000000     0.725000000000     0.883790000000    -0.224544   
O20      O      0.389920000000     0.729550000000     0.935690000000    -0.235786   
O21      O      0.375180000000     0.765410000000     0.933980000000    -0.224564   
O22      O      0.426870000000     0.760850000000     0.899030000000    -0.235839   
O23      O      0.344750000000     0.729920000000     0.891550000000    -0.234896   
O24      O      0.382100000000     0.760210000000     0.853950000000    -0.234747   
O25      O      0.372550000000     0.704150000000     0.115560000000    -0.225333   
O26      O      0.375070000000     0.765290000000     0.064460000000    -0.224642   
O27      O      0.424740000000     0.724900000000     0.114120000000    -0.224477   
O28      O      0.382680000000     0.760440000000     0.144440000000    -0.234838   
O29      O      0.373630000000     0.786020000000     0.116670000000    -0.22546    
O30      O      0.426740000000     0.760920000000     0.099760000000    -0.23585    
O31      O      0.344760000000     0.729750000000     0.106580000000    -0.234783   
O32      O      0.389360000000     0.729240000000     0.062460000000    -0.235861   
O33      O      0.719530000000     0.430070000000     0.883850000000    -0.224502   
O34      O      0.780730000000     0.379500000000     0.881940000000    -0.225441   
O35      O      0.698620000000     0.377830000000     0.882860000000    -0.225267   
O36      O      0.724080000000     0.395360000000     0.935760000000    -0.235701   
O37      O      0.759960000000     0.380630000000     0.934040000000    -0.224474   
O38      O      0.724470000000     0.350200000000     0.891610000000    -0.23463    
O39      O      0.755390000000     0.432320000000     0.899100000000    -0.2357     
O40      O      0.754740000000     0.387560000000     0.854010000000    -0.234859   
O41      O      0.698700000000     0.377980000000     0.115630000000    -0.225299   
O42      O      0.780570000000     0.379060000000     0.116730000000    -0.225249   
O43      O      0.719440000000     0.430180000000     0.114160000000    -0.224511   
O44      O      0.723780000000     0.394780000000     0.062530000000    -0.235676   
O45      O      0.759840000000     0.380510000000     0.064530000000    -0.224538   
O46      O      0.755470000000     0.432160000000     0.099800000000    -0.235725   
O47      O      0.724300000000     0.350200000000     0.106640000000    -0.234769   
O48      O      0.754980000000     0.388130000000     0.144500000000    -0.234698   
O49      O      0.719400000000     0.560560000000     0.883760000000    -0.224459   
O50      O      0.759810000000     0.610850000000     0.934000000000    -0.224471   
O51      O      0.698590000000     0.612750000000     0.882520000000    -0.225294   
O52      O      0.754680000000     0.603000000000     0.853880000000    -0.234835   
O53      O      0.780580000000     0.612080000000     0.881810000000    -0.225253   
O54      O      0.724510000000     0.640690000000     0.891510000000    -0.234803   
O55      O      0.755350000000     0.559060000000     0.898800000000    -0.235833   
O56      O      0.723830000000     0.595880000000     0.935530000000    -0.235809   
O57      O      0.719340000000     0.560660000000     0.113970000000    -0.224416   
O58      O      0.780670000000     0.611830000000     0.116750000000    -0.225333   
O59      O      0.698560000000     0.612740000000     0.115100000000    -0.225226   
O60      O      0.723860000000     0.595650000000     0.062280000000    -0.235769   
O61      O      0.759750000000     0.610820000000     0.064510000000    -0.224493   
O62      O      0.724560000000     0.640680000000     0.107070000000    -0.23468    
O63      O      0.755180000000     0.558930000000     0.099150000000    -0.235687   
O64      O      0.754840000000     0.603050000000     0.144380000000    -0.234757   
O65      O      0.606830000000     0.879060000000     0.290460000000    -0.225283   
O66      O      0.604280000000     0.930180000000     0.229330000000    -0.224607   
O67      O      0.554620000000     0.880520000000     0.269720000000    -0.224594   
O68      O      0.596710000000     0.850200000000     0.234180000000    -0.23472    
O69      O      0.605730000000     0.877980000000     0.208580000000    -0.225253   
O70      O      0.552630000000     0.894860000000     0.233690000000    -0.235851   
O71      O      0.634600000000     0.888090000000     0.264860000000    -0.234788   
O72      O      0.589970000000     0.932170000000     0.265370000000    -0.235848   
O73      O      0.554650000000     0.110820000000     0.269680000000    -0.224471   
O74      O      0.604120000000     0.060660000000     0.229260000000    -0.224433   
O75      O      0.606890000000     0.111820000000     0.290610000000    -0.225357   
O76      O      0.597170000000     0.140680000000     0.234490000000    -0.234801   
O77      O      0.605240000000     0.112750000000     0.208500000000    -0.225393   
O78      O      0.634520000000     0.103080000000     0.264770000000    -0.234798   
O79      O      0.552420000000     0.095600000000     0.233810000000    -0.235836   
O80      O      0.589350000000     0.058920000000     0.265120000000    -0.235736   
O81      O      0.373870000000     0.060610000000     0.229340000000    -0.22454    
O82      O      0.371950000000     0.112110000000     0.290530000000    -0.225282   
O83      O      0.372640000000     0.112800000000     0.208550000000    -0.225436   
O84      O      0.425660000000     0.095850000000     0.233790000000    -0.235706   
O85      O      0.424140000000     0.110880000000     0.269750000000    -0.224379   
O86      O      0.381690000000     0.140730000000     0.234450000000    -0.234871   
O87      O      0.388860000000     0.059100000000     0.265310000000    -0.235741   
O88      O      0.344010000000     0.103080000000     0.264620000000    -0.2347     
O89      O      0.373940000000     0.930120000000     0.229440000000    -0.224653   
O90      O      0.424130000000     0.880670000000     0.269850000000    -0.224445   
O91      O      0.372950000000     0.877870000000     0.208520000000    -0.2253     
O92      O      0.344100000000     0.887570000000     0.264640000000    -0.234731   
O93      O      0.372040000000     0.879550000000     0.290630000000    -0.225466   
O94      O      0.381730000000     0.850250000000     0.234360000000    -0.234753   
O95      O      0.389140000000     0.932360000000     0.265310000000    -0.23584    
O96      O      0.425850000000     0.895470000000     0.234000000000    -0.235756   
O97      O      0.373870000000     0.225010000000     0.934580000000    -0.22467    
O98      O      0.371990000000     0.286200000000     0.884000000000    -0.22548    
O99      O      0.372880000000     0.204090000000     0.882330000000    -0.225296   
O100     O      0.425790000000     0.229560000000     0.899950000000    -0.235878   
O101     O      0.424080000000     0.265400000000     0.885140000000    -0.224544   
O102     O      0.381680000000     0.229920000000     0.854710000000    -0.23485    
O103     O      0.389060000000     0.260880000000     0.936820000000    -0.235849   
O104     O      0.344040000000     0.260210000000     0.892000000000    -0.234713   
O105     O      0.373820000000     0.224900000000     0.065080000000    -0.224563   
O106     O      0.424110000000     0.265280000000     0.115360000000    -0.224401   
O107     O      0.372620000000     0.204100000000     0.117260000000    -0.22528    
O108     O      0.343980000000     0.260180000000     0.107570000000    -0.234858   
O109     O      0.371930000000     0.286090000000     0.116570000000    -0.225319   
O110     O      0.381660000000     0.230000000000     0.145200000000    -0.234696   
O111     O      0.388820000000     0.260860000000     0.063570000000    -0.235814   
O112     O      0.425620000000     0.229340000000     0.100300000000    -0.235697   
O113     O      0.554570000000     0.265250000000     0.885010000000    -0.224449   
O114     O      0.604230000000     0.224850000000     0.934680000000    -0.224496   
O115     O      0.606770000000     0.285980000000     0.883560000000    -0.225259   
O116     O      0.596640000000     0.229690000000     0.854710000000    -0.234927   
O117     O      0.605670000000     0.204100000000     0.882480000000    -0.225337   
O118     O      0.634550000000     0.260380000000     0.892580000000    -0.234696   
O119     O      0.552560000000     0.229220000000     0.899370000000    -0.235805   
O120     O      0.589940000000     0.260900000000     0.936670000000    -0.235883   
O121     O      0.554620000000     0.265180000000     0.115340000000    -0.224611   
O122     O      0.605220000000     0.204010000000     0.117260000000    -0.225397   
O123     O      0.606860000000     0.286110000000     0.116340000000    -0.225355   
O124     O      0.589340000000     0.260640000000     0.063440000000    -0.235746   
O125     O      0.604080000000     0.224770000000     0.065170000000    -0.224582   
O126     O      0.634500000000     0.260270000000     0.107600000000    -0.234731   
O127     O      0.552390000000     0.229330000000     0.100090000000    -0.235777   
O128     O      0.597140000000     0.229990000000     0.145200000000    -0.234691   
O129     O      0.055190000000     0.379310000000     0.229360000000    -0.224343   
O130     O      0.105470000000     0.429580000000     0.269750000000    -0.224386   
O131     O      0.107370000000     0.378090000000     0.208560000000    -0.225267   
O132     O      0.097680000000     0.349460000000     0.264640000000    -0.234867   
O133     O      0.106690000000     0.377400000000     0.290550000000    -0.225321   
O134     O      0.135310000000     0.387140000000     0.234460000000    -0.234714   
O135     O      0.053680000000     0.394290000000     0.265340000000    -0.235616   
O136     O      0.090400000000     0.431090000000     0.233810000000    -0.23571    
O137     O      0.924680000000     0.379370000000     0.229500000000    -0.224576   
O138     O      0.874110000000     0.377480000000     0.290700000000    -0.225453   
O139     O      0.872430000000     0.378370000000     0.208600000000    -0.225292   
O140     O      0.890060000000     0.431270000000     0.234070000000    -0.235797   
O141     O      0.875240000000     0.429570000000     0.269910000000    -0.224437   
O142     O      0.844810000000     0.387180000000     0.234430000000    -0.234675   
O143     O      0.926930000000     0.394540000000     0.265380000000    -0.235883   
O144     O      0.882110000000     0.349530000000     0.264710000000    -0.234714   
O145     O      0.875100000000     0.560040000000     0.269740000000    -0.224565   
O146     O      0.924760000000     0.609690000000     0.229330000000    -0.224555   
O147     O      0.873640000000     0.612240000000     0.290470000000    -0.225283   
O148     O      0.844780000000     0.602100000000     0.234190000000    -0.234765   
O149     O      0.872550000000     0.611140000000     0.208590000000    -0.225247   
O150     O      0.882650000000     0.640020000000     0.264870000000    -0.234754   
O151     O      0.889460000000     0.558040000000     0.233720000000    -0.235788   
O152     O      0.926750000000     0.595420000000     0.265390000000    -0.235833   
O153     O      0.106420000000     0.612320000000     0.290570000000    -0.225296   
O154     O      0.055250000000     0.609530000000     0.229230000000    -0.224617   
O155     O      0.105420000000     0.560080000000     0.269640000000    -0.224581   
O156     O      0.135280000000     0.602580000000     0.234440000000    -0.234761   
O157     O      0.107340000000     0.610660000000     0.208460000000    -0.225437   
O158     O      0.090160000000     0.557840000000     0.233790000000    -0.235824   
O159     O      0.097690000000     0.639950000000     0.264720000000    -0.23478    
O160     O      0.053520000000     0.594810000000     0.265100000000    -0.235918   
O161     O      0.259810000000     0.560030000000     0.884950000000    -0.224423   
O162     O      0.198660000000     0.611130000000     0.882400000000    -0.225323   
O163     O      0.280540000000     0.612230000000     0.883490000000    -0.225282   
O164     O      0.255470000000     0.595410000000     0.936600000000    -0.235835   
O165     O      0.219400000000     0.609670000000     0.934610000000    -0.224492   
O166     O      0.254940000000     0.640000000000     0.892500000000    -0.234787   
O167     O      0.223790000000     0.558030000000     0.899320000000    -0.235857   
O168     O      0.224250000000     0.602080000000     0.854630000000    -0.234887   
O169     O      0.259760000000     0.560060000000     0.115260000000    -0.224573   
O170     O      0.219330000000     0.609510000000     0.065100000000    -0.224475   
O171     O      0.280690000000     0.612300000000     0.116260000000    -0.225278   
O172     O      0.224570000000     0.602570000000     0.145120000000    -0.234785   
O173     O      0.198580000000     0.610650000000     0.117190000000    -0.225398   
O174     O      0.254840000000     0.639930000000     0.107530000000    -0.23465    
O175     O      0.223910000000     0.557830000000     0.100010000000    -0.235828   
O176     O      0.255210000000     0.594790000000     0.063360000000    -0.235768   
O177     O      0.198660000000     0.378080000000     0.117250000000    -0.225314   
O178     O      0.259850000000     0.429570000000     0.115320000000    -0.224545   
O179     O      0.219450000000     0.379290000000     0.065060000000    -0.224459   
O180     O      0.254730000000     0.349440000000     0.107550000000    -0.234755   
O181     O      0.280650000000     0.377380000000     0.116550000000    -0.225273   
O182     O      0.255430000000     0.394260000000     0.063540000000    -0.235721   
O183     O      0.224560000000     0.387140000000     0.145180000000    -0.234846   
O184     O      0.223910000000     0.431080000000     0.100260000000    -0.235844   
O185     O      0.219550000000     0.379350000000     0.934550000000    -0.224473   
O186     O      0.259960000000     0.429550000000     0.885110000000    -0.224559   
O187     O      0.198640000000     0.378360000000     0.882310000000    -0.225292   
O188     O      0.254750000000     0.349520000000     0.891980000000    -0.234742   
O189     O      0.280750000000     0.377460000000     0.883980000000    -0.225427   
O190     O      0.224470000000     0.387170000000     0.854690000000    -0.23487    
O191     O      0.255440000000     0.394520000000     0.936790000000    -0.235681   
O192     O      0.224120000000     0.431260000000     0.899940000000    -0.235762   
O193     O      0.872600000000     0.704070000000     0.617220000000    -0.225153   
O194     O      0.871900000000     0.786050000000     0.616560000000    -0.225306   
O195     O      0.873830000000     0.724880000000     0.565040000000    -0.224353   
O196     O      0.925610000000     0.729310000000     0.600350000000    -0.235828   
O197     O      0.924090000000     0.765270000000     0.615340000000    -0.224482   
O198     O      0.888880000000     0.760830000000     0.563550000000    -0.235678   
O199     O      0.881590000000     0.729980000000     0.645170000000    -0.234701   
O200     O      0.843960000000     0.760160000000     0.607490000000    -0.234786   
O201     O      0.104070000000     0.724810000000     0.565100000000    -0.224538   
O202     O      0.106840000000     0.786130000000     0.616270000000    -0.225358   
O203     O      0.105180000000     0.704020000000     0.617180000000    -0.22531    
O204     O      0.052360000000     0.729330000000     0.600090000000    -0.235816   
O205     O      0.054600000000     0.765200000000     0.615280000000    -0.224497   
O206     O      0.097160000000     0.730010000000     0.645130000000    -0.234754   
O207     O      0.089240000000     0.760640000000     0.563370000000    -0.235901   
O208     O      0.134470000000     0.760300000000     0.607500000000    -0.234757   
O209     O      0.873930000000     0.725020000000     0.434540000000    -0.224545   
O210     O      0.872040000000     0.786220000000     0.383970000000    -0.225248   
O211     O      0.872940000000     0.704110000000     0.382300000000    -0.225362   
O212     O      0.925840000000     0.729570000000     0.399840000000    -0.235731   
O213     O      0.924120000000     0.765440000000     0.385090000000    -0.224414   
O214     O      0.881690000000     0.729950000000     0.354670000000    -0.234738   
O215     O      0.889180000000     0.760870000000     0.436790000000    -0.235804   
O216     O      0.844090000000     0.760230000000     0.392020000000    -0.234731   
O217     O      0.104260000000     0.724920000000     0.434610000000    -0.224525   
O218     O      0.054610000000     0.765310000000     0.384940000000    -0.224649   
O219     O      0.105720000000     0.704170000000     0.382410000000    -0.225325   
O220     O      0.134590000000     0.760460000000     0.392550000000    -0.234823   
O221     O      0.106820000000     0.786040000000     0.383480000000    -0.225303   
O222     O      0.096730000000     0.729770000000     0.354630000000    -0.234767   
O223     O      0.089900000000     0.760950000000     0.436600000000    -0.235755   
O224     O      0.052610000000     0.729260000000     0.399220000000    -0.2359     
O225     O      0.105660000000     0.378010000000     0.708590000000    -0.225308   
O226     O      0.054560000000     0.380540000000     0.769750000000    -0.224469   
O227     O      0.104190000000     0.430200000000     0.729330000000    -0.224525   
O228     O      0.134530000000     0.388150000000     0.764880000000    -0.234888   
O229     O      0.106760000000     0.379090000000     0.790470000000    -0.225298   
O230     O      0.089850000000     0.432200000000     0.765360000000    -0.235817   
O231     O      0.096670000000     0.350230000000     0.734190000000    -0.23481    
O232     O      0.052550000000     0.394810000000     0.733690000000    -0.235905   
O233     O      0.873870000000     0.430100000000     0.729480000000    -0.224627   
O234     O      0.924070000000     0.380670000000     0.769900000000    -0.224483   
O235     O      0.872870000000     0.377850000000     0.708570000000    -0.225223   
O236     O      0.844030000000     0.387580000000     0.764690000000    -0.234628   
O237     O      0.871980000000     0.379530000000     0.790680000000    -0.225287   
O238     O      0.881640000000     0.350230000000     0.734420000000    -0.23461    
O239     O      0.889120000000     0.432350000000     0.765330000000    -0.235751   
O240     O      0.925780000000     0.395400000000     0.734020000000    -0.235802   
O241     O      0.873790000000     0.560590000000     0.729330000000    -0.224485   
O242     O      0.871870000000     0.612100000000     0.790500000000    -0.225264   
O243     O      0.872570000000     0.612780000000     0.708510000000    -0.22528    
O244     O      0.925570000000     0.595900000000     0.733740000000    -0.235779   
O245     O      0.924050000000     0.610890000000     0.769710000000    -0.224421   
O246     O      0.881550000000     0.640720000000     0.734430000000    -0.234704   
O247     O      0.888850000000     0.559090000000     0.765270000000    -0.235778   
O248     O      0.843930000000     0.603030000000     0.764600000000    -0.234772   
O249     O      0.104010000000     0.560680000000     0.729200000000    -0.224438   
O250     O      0.054560000000     0.610860000000     0.769610000000    -0.224597   
O251     O      0.105150000000     0.612770000000     0.708420000000    -0.225388   
O252     O      0.134440000000     0.603070000000     0.764700000000    -0.234736   
O253     O      0.106810000000     0.611850000000     0.790530000000    -0.225334   
O254     O      0.097130000000     0.640710000000     0.734420000000    -0.234703   
O255     O      0.089210000000     0.558960000000     0.765050000000    -0.235737   
O256     O      0.052330000000     0.595680000000     0.733730000000    -0.235773   
O257     O      0.219460000000     0.060640000000     0.383720000000    -0.224551   
O258     O      0.259850000000     0.110910000000     0.434000000000    -0.224399   
O259     O      0.198650000000     0.112830000000     0.382510000000    -0.225373   
O260     O      0.254740000000     0.103110000000     0.353880000000    -0.234765   
O261     O      0.280650000000     0.112130000000     0.381820000000    -0.225285   
O262     O      0.224570000000     0.140760000000     0.391540000000    -0.234807   
O263     O      0.255420000000     0.059130000000     0.398730000000    -0.235805   
O264     O      0.223900000000     0.095880000000     0.435510000000    -0.235769   
O265     O      0.198670000000     0.877900000000     0.382780000000    -0.225265   
O266     O      0.259990000000     0.880710000000     0.433970000000    -0.224462   
O267     O      0.219580000000     0.930140000000     0.383770000000    -0.224514   
O268     O      0.254790000000     0.887590000000     0.353930000000    -0.234669   
O269     O      0.280780000000     0.879570000000     0.381880000000    -0.22545    
O270     O      0.255460000000     0.932390000000     0.398970000000    -0.235687   
O271     O      0.224510000000     0.850280000000     0.391570000000    -0.234743   
O272     O      0.224140000000     0.895500000000     0.435680000000    -0.235751   
O273     O      0.259830000000     0.880560000000     0.564460000000    -0.224515   
O274     O      0.219410000000     0.930210000000     0.614100000000    -0.224534   
O275     O      0.280550000000     0.879100000000     0.616660000000    -0.225279   
O276     O      0.224270000000     0.850240000000     0.606530000000    -0.234761   
O277     O      0.198670000000     0.878010000000     0.615560000000    -0.22526    
O278     O      0.254950000000     0.888120000000     0.644430000000    -0.234791   
O279     O      0.223790000000     0.894890000000     0.562450000000    -0.235783   
O280     O      0.255470000000     0.932200000000     0.599820000000    -0.235801   
O281     O      0.280670000000     0.111850000000     0.616760000000    -0.225351   
O282     O      0.219320000000     0.060690000000     0.613950000000    -0.224571   
O283     O      0.259750000000     0.110860000000     0.564510000000    -0.224446   
O284     O      0.224550000000     0.140710000000     0.607030000000    -0.234646   
O285     O      0.198560000000     0.112780000000     0.615100000000    -0.22536    
O286     O      0.223880000000     0.095640000000     0.562270000000    -0.235716   
O287     O      0.254820000000     0.103110000000     0.644380000000    -0.2349     
O288     O      0.255190000000     0.058960000000     0.599200000000    -0.235743   
O289     O      0.107370000000     0.204120000000     0.382520000000    -0.225307   
O290     O      0.105460000000     0.265310000000     0.434020000000    -0.224553   
O291     O      0.055180000000     0.224920000000     0.383740000000    -0.224436   
O292     O      0.097660000000     0.260200000000     0.353890000000    -0.234681   
O293     O      0.106690000000     0.286110000000     0.381830000000    -0.225263   
O294     O      0.053670000000     0.260890000000     0.398740000000    -0.235841   
O295     O      0.135310000000     0.230020000000     0.391560000000    -0.234828   
O296     O      0.090420000000     0.229360000000     0.435530000000    -0.235767   
O297     O      0.872430000000     0.204120000000     0.382850000000    -0.225293   
O298     O      0.874100000000     0.286230000000     0.381950000000    -0.225485   
O299     O      0.924670000000     0.225040000000     0.383830000000    -0.22452    
O300     O      0.890030000000     0.229590000000     0.435750000000    -0.235779   
O301     O      0.875220000000     0.265430000000     0.434040000000    -0.224587   
O302     O      0.926920000000     0.260910000000     0.399040000000    -0.235731   
O303     O      0.844800000000     0.229950000000     0.391640000000    -0.234661   
O304     O      0.882100000000     0.260240000000     0.354000000000    -0.234845   
O305     O      0.875060000000     0.265280000000     0.564520000000    -0.224573   
O306     O      0.872530000000     0.204130000000     0.615630000000    -0.225347   
O307     O      0.873590000000     0.286000000000     0.616720000000    -0.225324   
O308     O      0.926710000000     0.260930000000     0.599880000000    -0.235836   
O309     O      0.924730000000     0.224880000000     0.614170000000    -0.224494   
O310     O      0.882630000000     0.260420000000     0.644500000000    -0.234834   
O311     O      0.889400000000     0.229250000000     0.562520000000    -0.235906   
O312     O      0.844750000000     0.229720000000     0.606600000000    -0.234872   
O313     O      0.105400000000     0.265210000000     0.564520000000    -0.224647   
O314     O      0.055220000000     0.224800000000     0.613980000000    -0.224454   
O315     O      0.106380000000     0.286140000000     0.616760000000    -0.225384   
O316     O      0.135250000000     0.230020000000     0.607050000000    -0.234781   
O317     O      0.107310000000     0.204030000000     0.615110000000    -0.225412   
O318     O      0.097650000000     0.260300000000     0.644390000000    -0.234797   
O319     O      0.090160000000     0.229360000000     0.562280000000    -0.235893   
O320     O      0.053490000000     0.260660000000     0.599220000000    -0.235702   
O321     O      0.698620000000     0.878060000000     0.617250000000    -0.22532    
O322     O      0.759830000000     0.929540000000     0.615370000000    -0.224513   
O323     O      0.719430000000     0.879290000000     0.565070000000    -0.224424   
O324     O      0.754700000000     0.849420000000     0.607510000000    -0.234672   
O325     O      0.780610000000     0.877350000000     0.616580000000    -0.225192   
O326     O      0.755390000000     0.894320000000     0.563570000000    -0.2357     
O327     O      0.724530000000     0.887050000000     0.645200000000    -0.234769   
O328     O      0.723870000000     0.931060000000     0.600370000000    -0.235837   
O329     O      0.698560000000     0.110620000000     0.617270000000    -0.225395   
O330     O      0.780670000000     0.112280000000     0.616350000000    -0.225319   
O331     O      0.719340000000     0.109490000000     0.565180000000    -0.224429   
O332     O      0.723870000000     0.057800000000     0.600150000000    -0.235731   
O333     O      0.759750000000     0.060030000000     0.615350000000    -0.224505   
O334     O      0.755190000000     0.094700000000     0.563450000000    -0.235761   
O335     O      0.724550000000     0.102570000000     0.645210000000    -0.234654   
O336     O      0.754830000000     0.139900000000     0.607590000000    -0.234815   
O337     O      0.698720000000     0.111130000000     0.382480000000    -0.225432   
O338     O      0.759880000000     0.060040000000     0.385020000000    -0.224511   
O339     O      0.719460000000     0.109670000000     0.434690000000    -0.224517   
O340     O      0.755000000000     0.140010000000     0.392620000000    -0.234743   
O341     O      0.780600000000     0.112240000000     0.383570000000    -0.225244   
O342     O      0.755500000000     0.095340000000     0.436680000000    -0.235833   
O343     O      0.724330000000     0.102130000000     0.354710000000    -0.234847   
O344     O      0.723830000000     0.058030000000     0.399320000000    -0.2358     
O345     O      0.698680000000     0.878370000000     0.382320000000    -0.225316   
O346     O      0.780790000000     0.877470000000     0.384000000000    -0.225358   
O347     O      0.719580000000     0.879370000000     0.434570000000    -0.224595   
O348     O      0.724140000000     0.931270000000     0.399890000000    -0.235688   
O349     O      0.760010000000     0.929560000000     0.385140000000    -0.224413   
O350     O      0.755450000000     0.894590000000     0.436820000000    -0.235677   
O351     O      0.724520000000     0.887150000000     0.354700000000    -0.234742   
O352     O      0.754790000000     0.849530000000     0.392040000000    -0.234666   
O353     O      0.424620000000     0.879360000000     0.729460000000    -0.224606   
O354     O      0.374040000000     0.877450000000     0.790650000000    -0.225409   
O355     O      0.372380000000     0.878370000000     0.708540000000    -0.225324   
O356     O      0.389940000000     0.931270000000     0.734010000000    -0.235756   
O357     O      0.375180000000     0.929540000000     0.769880000000    -0.224458   
O358     O      0.344750000000     0.887130000000     0.734380000000    -0.234774   
O359     O      0.426870000000     0.894590000000     0.765320000000    -0.235723   
O360     O      0.382090000000     0.849520000000     0.764660000000    -0.234827   
O361     O      0.424720000000     0.109660000000     0.729370000000    -0.224546   
O362     O      0.375040000000     0.060020000000     0.769760000000    -0.224603   
O363     O      0.372520000000     0.111130000000     0.708620000000    -0.225309   
O364     O      0.382650000000     0.139990000000     0.764900000000    -0.234867   
O365     O      0.373590000000     0.112230000000     0.790490000000    -0.225421   
O366     O      0.344730000000     0.102120000000     0.734210000000    -0.234704   
O367     O      0.426700000000     0.095320000000     0.765400000000    -0.235759   
O368     O      0.389340000000     0.058020000000     0.733710000000    -0.235847   
O369     O      0.555130000000     0.879270000000     0.729350000000    -0.224543   
O370     O      0.605420000000     0.929520000000     0.769750000000    -0.224506   
O371     O      0.607320000000     0.878050000000     0.708540000000    -0.225357   
O372     O      0.597580000000     0.849400000000     0.764620000000    -0.234669   
O373     O      0.606640000000     0.877330000000     0.790530000000    -0.225207   
O374     O      0.635260000000     0.887040000000     0.734450000000    -0.234822   
O375     O      0.553630000000     0.894300000000     0.765300000000    -0.235751   
O376     O      0.590430000000     0.931040000000     0.733790000000    -0.235854   
O377     O      0.607300000000     0.110610000000     0.708510000000    -0.225402   
O378     O      0.605380000000     0.060010000000     0.769690000000    -0.224637   
O379     O      0.555210000000     0.109470000000     0.729280000000    -0.224465   
O380     O      0.597610000000     0.139880000000     0.764780000000    -0.234774   
O381     O      0.606380000000     0.112260000000     0.790620000000    -0.225313   
O382     O      0.553480000000     0.094680000000     0.765130000000    -0.235667   
O383     O      0.635240000000     0.102560000000     0.734500000000    -0.234784   
O384     O      0.590190000000     0.057790000000     0.733810000000    -0.235783   


