data_structure

_audit_creation_method RASPA-1.0
_audit_creation_date 2023-5-22
_audit_author_name 'Poobodin Mano'

_cell_length_a    51.24
_cell_length_b    52.7058
_cell_length_c    26.3309
_cell_angle_alpha 90.0007
_cell_angle_beta  90.0007
_cell_angle_gamma 120
_cell_volume      61583.4

_symmetry_cell_setting          triclinic
_symmetry_space_group_name_Hall 'P 1'
_symmetry_space_group_name_H-M  'P 1'
_symmetry_Int_Tables_number     1

_symmetry_equiv_pos_as_xyz 'x,y,z'

loop_
_atom_site_label
_atom_site_type_symbol
_atom_site_fract_x
_atom_site_fract_y
_atom_site_fract_z
_atom_site_charge
C1       C      0.324180000000     0.214550000000     0.366530000000     0.284546   
C2       C      0.364640000000     0.212600000000     0.198900000000     0.284804   
C3       C      0.334930000000     0.279880000000     0.240310000000     0.283202   
C4       C      0.422420000000     0.280510000000     0.319490000000     0.282822   
C5       C      0.210810000000     0.331770000000     0.031170000000     0.284521   
C6       C      0.210770000000     0.371100000000     0.200480000000     0.284727   
C7       C      0.276990000000     0.340170000000     0.154440000000     0.282704   
C8       C      0.277080000000     0.427350000000     0.077590000000     0.282299   
C9       C      0.364290000000     0.140040000000     0.033840000000     0.284427   
C10      C      0.324180000000     0.098250000000     0.865620000000     0.284324   
C11      C      0.422580000000     0.130850000000     0.913270000000     0.282822   
C12      C      0.335190000000     0.044210000000     0.992610000000     0.283      
C13      C      0.138430000000     0.260040000000     0.864160000000     0.284655   
C14      C      0.100890000000     0.260060000000     0.698870000000     0.284458   
C15      C      0.125120000000     0.188440000000     0.743270000000     0.286075   
C16      C      0.041960000000     0.191840000000     0.825230000000     0.284916   
C17      C      0.251820000000     0.143830000000     0.534540000000     0.282904   
C18      C      0.251770000000     0.097040000000     0.696450000000     0.282898   
C19      C      0.185180000000     0.130580000000     0.656410000000     0.283499   
C20      C      0.185250000000     0.045030000000     0.574860000000     0.283534   
C21      C      0.100940000000     0.333080000000     0.535050000000     0.283208   
C22      C      0.137950000000     0.370200000000     0.368710000000     0.282944   
C23      C      0.041840000000     0.341080000000     0.407390000000     0.286074   
C24      C      0.125220000000     0.428250000000     0.490050000000     0.286009   
C25      C      0.181530000000     0.008390000000     0.511010000000    -0.00675298 
C26      C      0.169100000000     0.015280000000     0.552680000000    -0.052483   
C27      C      0.141460000000     0.993530000000     0.572760000000    -0.00681805 
C28      C      0.126850000000     0.965250000000     0.552090000000    -0.00597609 
C29      C      0.139530000000     0.458350000000     0.510720000000    -0.0540535  
C30      C      0.166870000000     0.480300000000     0.490160000000    -0.00603771 
C31      C      0.126960000000     0.153710000000     0.679920000000    -0.00595771 
C32      C      0.139360000000     0.172290000000     0.722160000000    -0.0537244  
C33      C      0.166430000000     0.176400000000     0.743070000000    -0.00603625 
C34      C      0.181120000000     0.162730000000     0.721700000000    -0.00670641 
C35      C      0.168980000000     0.144430000000     0.679130000000    -0.0525633  
C36      C      0.141590000000     0.139790000000     0.658710000000    -0.00672645 
C37      C      0.073930000000     0.277480000000     0.641840000000    -0.00631508 
C38      C      0.100830000000     0.278670000000     0.656910000000    -0.053054   
C39      C      0.127750000000     0.297920000000     0.631660000000    -0.00628483 
C40      C      0.127770000000     0.315580000000     0.592080000000    -0.00676494 
C41      C      0.100890000000     0.314440000000     0.577050000000    -0.0526185  
C42      C      0.073970000000     0.295230000000     0.602360000000    -0.00658161 
C43      C      0.465670000000     0.130330000000     0.868610000000    -0.00664576 
C44      C      0.453430000000     0.146060000000     0.891920000000    -0.0519438  
C45      C      0.470690000000     0.176780000000     0.893600000000    -0.00692553 
C46      C      0.999410000000     0.191510000000     0.872090000000    -0.00623049 
C47      C      0.011610000000     0.175870000000     0.848380000000    -0.0525775  
C48      C      0.994520000000     0.145110000000     0.847050000000    -0.00619055 
C49      C      0.276290000000     0.092620000000     0.830150000000    -0.00605647 
C50      C      0.305180000000     0.096540000000     0.822040000000    -0.0532438  
C51      C      0.315930000000     0.099450000000     0.772040000000    -0.00623189 
C52      C      0.298410000000     0.099180000000     0.731060000000    -0.00671249 
C53      C      0.269680000000     0.095660000000     0.739280000000    -0.052237   
C54      C      0.258660000000     0.092020000000     0.789190000000    -0.00673055 
C55      C      0.201520000000     0.371020000000     0.293890000000    -0.00615516 
C56      C      0.192620000000     0.371620000000     0.243640000000    -0.0534172  
C57      C      0.165810000000     0.372070000000     0.234900000000    -0.00587545 
C58      C      0.148200000000     0.371870000000     0.275560000000    -0.00683669 
C59      C      0.156880000000     0.370880000000     0.325800000000    -0.0519116  
C60      C      0.183720000000     0.370490000000     0.334590000000    -0.00681856 
C61      C      0.323410000000     0.472020000000     0.044910000000    -0.00676594 
C62      C      0.292480000000     0.457400000000     0.056490000000    -0.051962   
C63      C      0.275960000000     0.471620000000     0.047080000000    -0.0070796  
C64      C      0.289920000000     0.999710000000     0.026260000000    -0.00696958 
C65      C      0.320810000000     0.014390000000     0.014600000000    -0.0524101  
C66      C      0.337480000000     0.000330000000     0.024290000000    -0.00642369 
C67      C      0.200930000000     0.322710000000     0.937880000000    -0.00634543 
C68      C      0.192760000000     0.313250000000     0.988250000000    -0.0531738  
C69      C      0.166800000000     0.286070000000     0.997410000000    -0.0060513  
C70      C      0.149350000000     0.268680000000     0.957040000000    -0.00634622 
C71      C      0.157270000000     0.278280000000     0.906700000000    -0.0528417  
C72      C      0.183230000000     0.305470000000     0.897470000000    -0.00644825 
C73      C      0.276260000000     0.173330000000     0.401400000000    -0.00604053 
C74      C      0.305190000000     0.197360000000     0.409840000000    -0.0532142  
C75      C      0.316020000000     0.204360000000     0.459890000000    -0.00624118 
C76      C      0.298520000000     0.187230000000     0.500570000000    -0.00675624 
C77      C      0.269730000000     0.162960000000     0.492020000000    -0.052237   
C78      C      0.258650000000     0.156410000000     0.442080000000    -0.00678712 
C79      C      0.471290000000     0.283460000000     0.341560000000    -0.00711305 
C80      C      0.453260000000     0.296590000000     0.340770000000    -0.0518317  
C81      C      0.464750000000     0.324790000000     0.361460000000    -0.00675447 
C82      C      0.993640000000     0.339430000000     0.382850000000    -0.00588957 
C83      C      0.011500000000     0.326100000000     0.384080000000    -0.0530063  
C84      C      0.000040000000     0.298010000000     0.363020000000    -0.00613318 
C85      C      0.289420000000     0.280570000000     0.208470000000    -0.00677342 
C86      C      0.320530000000     0.295680000000     0.218270000000    -0.0524745  
C87      C      0.337460000000     0.325690000000     0.206550000000    -0.00646666 
C88      C      0.323440000000     0.340300000000     0.185700000000    -0.0066375  
C89      C      0.292290000000     0.325090000000     0.175880000000    -0.0522882  
C90      C      0.275490000000     0.295070000000     0.187390000000    -0.00690732 
C91      C      0.364530000000     0.202370000000     0.105990000000    -0.00657551 
C92      C      0.365390000000     0.194460000000     0.156670000000    -0.0528625  
C93      C      0.366420000000     0.168770000000     0.166620000000    -0.00624137 
C94      C      0.366460000000     0.151280000000     0.126710000000    -0.00666808 
C95      C      0.365160000000     0.158970000000     0.076060000000    -0.0526097  
C96      C      0.364270000000     0.184730000000     0.066110000000    -0.00633463 
C97      C      0.324180000000     0.714550000000     0.366520000000     0.284541   
C98      C      0.364650000000     0.712600000000     0.198900000000     0.284844   
C99      C      0.334930000000     0.779880000000     0.240310000000     0.283179   
C100     C      0.422420000000     0.780510000000     0.319490000000     0.283193   
C101     C      0.210810000000     0.831760000000     0.031170000000     0.284548   
C102     C      0.210780000000     0.871100000000     0.200480000000     0.284594   
C103     C      0.276990000000     0.840170000000     0.154440000000     0.282638   
C104     C      0.277090000000     0.927340000000     0.077590000000     0.282447   
C105     C      0.364300000000     0.640050000000     0.033830000000     0.284553   
C106     C      0.324190000000     0.598250000000     0.865620000000     0.284046   
C107     C      0.422590000000     0.630850000000     0.913260000000     0.282652   
C108     C      0.335200000000     0.544210000000     0.992610000000     0.283248   
C109     C      0.138440000000     0.760040000000     0.864160000000     0.284571   
C110     C      0.100900000000     0.760060000000     0.698870000000     0.2848     
C111     C      0.125130000000     0.688440000000     0.743260000000     0.286071   
C112     C      0.041970000000     0.691840000000     0.825220000000     0.28484    
C113     C      0.251820000000     0.643830000000     0.534540000000     0.282944   
C114     C      0.251780000000     0.597040000000     0.696440000000     0.282833   
C115     C      0.185190000000     0.630580000000     0.656410000000     0.283418   
C116     C      0.185260000000     0.545020000000     0.574860000000     0.283712   
C117     C      0.100950000000     0.833080000000     0.535060000000     0.283143   
C118     C      0.137960000000     0.870200000000     0.368710000000     0.28299    
C119     C      0.041840000000     0.841080000000     0.407390000000     0.285864   
C120     C      0.125220000000     0.928250000000     0.490050000000     0.285975   
C121     C      0.181530000000     0.508380000000     0.511010000000    -0.00668943 
C122     C      0.169110000000     0.515280000000     0.552680000000    -0.0526934  
C123     C      0.141460000000     0.493530000000     0.572760000000    -0.00673763 
C124     C      0.126850000000     0.465250000000     0.552090000000    -0.00598778 
C125     C      0.139530000000     0.958350000000     0.510720000000    -0.0540905  
C126     C      0.166860000000     0.980300000000     0.490170000000    -0.00598726 
C127     C      0.126970000000     0.653720000000     0.679910000000    -0.0059826  
C128     C      0.139370000000     0.672290000000     0.722150000000    -0.0537225  
C129     C      0.166430000000     0.676400000000     0.743060000000    -0.00602359 
C130     C      0.181120000000     0.662730000000     0.721690000000    -0.00670067 
C131     C      0.168990000000     0.644430000000     0.679130000000    -0.0525508  
C132     C      0.141600000000     0.639790000000     0.658710000000    -0.00671317 
C133     C      0.073940000000     0.777470000000     0.641820000000    -0.00621072 
C134     C      0.100840000000     0.778670000000     0.656910000000    -0.053218   
C135     C      0.127760000000     0.797930000000     0.631670000000    -0.00617676 
C136     C      0.127770000000     0.815590000000     0.592090000000    -0.00675808 
C137     C      0.100890000000     0.814450000000     0.577050000000    -0.0526891  
C138     C      0.073970000000     0.795230000000     0.602350000000    -0.00660904 
C139     C      0.465680000000     0.630340000000     0.868620000000    -0.0066115  
C140     C      0.453440000000     0.646060000000     0.891920000000    -0.0518766  
C141     C      0.470690000000     0.676790000000     0.893590000000    -0.0070973  
C142     C      0.999420000000     0.691510000000     0.872080000000    -0.00614411 
C143     C      0.011620000000     0.675880000000     0.848380000000    -0.0525547  
C144     C      0.994520000000     0.645110000000     0.847060000000    -0.00621295 
C145     C      0.276300000000     0.592620000000     0.830150000000    -0.00610859 
C146     C      0.305180000000     0.596540000000     0.822030000000    -0.0530722  
C147     C      0.315930000000     0.599450000000     0.772040000000    -0.00628576 
C148     C      0.298420000000     0.599180000000     0.731060000000    -0.00670083 
C149     C      0.269690000000     0.595650000000     0.739280000000    -0.0521751  
C150     C      0.258670000000     0.592020000000     0.789190000000    -0.00675196 
C151     C      0.201530000000     0.871020000000     0.293900000000    -0.00623306 
C152     C      0.192630000000     0.871620000000     0.243650000000    -0.0532708  
C153     C      0.165810000000     0.872070000000     0.234900000000    -0.00603373 
C154     C      0.148210000000     0.871870000000     0.275570000000    -0.00669093 
C155     C      0.156880000000     0.870880000000     0.325800000000    -0.0520465  
C156     C      0.183730000000     0.870490000000     0.334590000000    -0.00677931 
C157     C      0.323410000000     0.972030000000     0.044920000000    -0.00678108 
C158     C      0.292470000000     0.957400000000     0.056490000000    -0.0520014  
C159     C      0.275950000000     0.971610000000     0.047070000000    -0.00695506 
C160     C      0.289920000000     0.499710000000     0.026270000000    -0.00667402 
C161     C      0.320810000000     0.514390000000     0.014600000000    -0.052635   
C162     C      0.337480000000     0.500330000000     0.024280000000    -0.00641299 
C163     C      0.200940000000     0.822710000000     0.937880000000    -0.00639252 
C164     C      0.192760000000     0.813250000000     0.988250000000    -0.0531999  
C165     C      0.166810000000     0.786070000000     0.997410000000    -0.00603332 
C166     C      0.149350000000     0.768680000000     0.957040000000    -0.00634267 
C167     C      0.157270000000     0.778280000000     0.906700000000    -0.0528665  
C168     C      0.183240000000     0.805460000000     0.897480000000    -0.00638147 
C169     C      0.276260000000     0.673330000000     0.401400000000    -0.0061173  
C170     C      0.305200000000     0.697360000000     0.409840000000    -0.0531906  
C171     C      0.316020000000     0.704360000000     0.459890000000    -0.00623664 
C172     C      0.298520000000     0.687230000000     0.500560000000    -0.00670543 
C173     C      0.269740000000     0.662960000000     0.492020000000    -0.0522678  
C174     C      0.258660000000     0.656410000000     0.442080000000    -0.00671175 
C175     C      0.471300000000     0.783460000000     0.341550000000    -0.00719688 
C176     C      0.453260000000     0.796600000000     0.340770000000    -0.051905   
C177     C      0.464750000000     0.824790000000     0.361460000000    -0.00671336 
C178     C      0.993640000000     0.839430000000     0.382860000000    -0.00589046 
C179     C      0.011500000000     0.826100000000     0.384090000000    -0.0529982  
C180     C      0.000050000000     0.798020000000     0.363020000000    -0.00603901 
C181     C      0.289420000000     0.780580000000     0.208480000000    -0.00676503 
C182     C      0.320530000000     0.795680000000     0.218270000000    -0.0524774  
C183     C      0.337470000000     0.825690000000     0.206540000000    -0.00645836 
C184     C      0.323440000000     0.840300000000     0.185690000000    -0.00668855 
C185     C      0.292290000000     0.825080000000     0.175890000000    -0.0521825  
C186     C      0.275500000000     0.795070000000     0.187410000000    -0.00690937 
C187     C      0.364540000000     0.702370000000     0.105990000000    -0.00650282 
C188     C      0.365390000000     0.694460000000     0.156670000000    -0.0529374  
C189     C      0.366430000000     0.668780000000     0.166620000000    -0.00619152 
C190     C      0.366470000000     0.651290000000     0.126710000000    -0.00665946 
C191     C      0.365170000000     0.658970000000     0.076050000000    -0.052684   
C192     C      0.364280000000     0.684730000000     0.066100000000    -0.00636312 
C193     C      0.824180000000     0.214550000000     0.366530000000     0.284544   
C194     C      0.864640000000     0.212600000000     0.198900000000     0.284814   
C195     C      0.834930000000     0.279880000000     0.240310000000     0.283201   
C196     C      0.922420000000     0.280510000000     0.319490000000     0.282879   
C197     C      0.710810000000     0.331770000000     0.031170000000     0.284518   
C198     C      0.710770000000     0.371100000000     0.200480000000     0.284724   
C199     C      0.776990000000     0.340170000000     0.154440000000     0.282707   
C200     C      0.777080000000     0.427350000000     0.077590000000     0.282299   
C201     C      0.864300000000     0.140040000000     0.033840000000     0.284472   
C202     C      0.824180000000     0.098250000000     0.865620000000     0.284322   
C203     C      0.922580000000     0.130850000000     0.913270000000     0.282806   
C204     C      0.835190000000     0.044210000000     0.992610000000     0.283      
C205     C      0.638430000000     0.260040000000     0.864160000000     0.284657   
C206     C      0.600890000000     0.260060000000     0.698870000000     0.284477   
C207     C      0.625120000000     0.188440000000     0.743270000000     0.286075   
C208     C      0.541960000000     0.191840000000     0.825230000000     0.284866   
C209     C      0.751810000000     0.143830000000     0.534540000000     0.282948   
C210     C      0.751780000000     0.097040000000     0.696450000000     0.282788   
C211     C      0.685180000000     0.130580000000     0.656410000000     0.283497   
C212     C      0.685250000000     0.045030000000     0.574860000000     0.283536   
C213     C      0.600940000000     0.333080000000     0.535050000000     0.282971   
C214     C      0.637950000000     0.370200000000     0.368710000000     0.282986   
C215     C      0.541840000000     0.341080000000     0.407390000000     0.286057   
C216     C      0.625220000000     0.428250000000     0.490050000000     0.286009   
C217     C      0.681530000000     0.008390000000     0.511010000000    -0.00671969 
C218     C      0.669100000000     0.015280000000     0.552680000000    -0.0524892  
C219     C      0.641460000000     0.993530000000     0.572760000000    -0.00682618 
C220     C      0.626850000000     0.965250000000     0.552090000000    -0.00594867 
C221     C      0.639530000000     0.458350000000     0.510720000000    -0.0540523  
C222     C      0.666870000000     0.480300000000     0.490160000000    -0.00603991 
C223     C      0.626960000000     0.153710000000     0.679920000000    -0.00595744 
C224     C      0.639360000000     0.172290000000     0.722160000000    -0.0537239  
C225     C      0.666430000000     0.176400000000     0.743070000000    -0.00603607 
C226     C      0.681120000000     0.162730000000     0.721700000000    -0.00670652 
C227     C      0.668980000000     0.144430000000     0.679130000000    -0.0525634  
C228     C      0.641590000000     0.139790000000     0.658710000000    -0.00672629 
C229     C      0.573930000000     0.277480000000     0.641840000000    -0.00627385 
C230     C      0.600830000000     0.278670000000     0.656910000000    -0.0531018  
C231     C      0.627750000000     0.297920000000     0.631660000000    -0.00619139 
C232     C      0.627770000000     0.315580000000     0.592080000000    -0.0068431  
C233     C      0.600890000000     0.314440000000     0.577050000000    -0.052508   
C234     C      0.573970000000     0.295230000000     0.602360000000    -0.00664157 
C235     C      0.965670000000     0.130330000000     0.868610000000    -0.00671409 
C236     C      0.953430000000     0.146060000000     0.891920000000    -0.0518876  
C237     C      0.970690000000     0.176780000000     0.893600000000    -0.00699496 
C238     C      0.499410000000     0.191510000000     0.872090000000    -0.00638595 
C239     C      0.511610000000     0.175870000000     0.848380000000    -0.0524253  
C240     C      0.494520000000     0.145110000000     0.847050000000    -0.00634451 
C241     C      0.776290000000     0.092620000000     0.830150000000    -0.00606521 
C242     C      0.805180000000     0.096540000000     0.822040000000    -0.0532373  
C243     C      0.815930000000     0.099450000000     0.772040000000    -0.00623536 
C244     C      0.798410000000     0.099180000000     0.731060000000    -0.006704   
C245     C      0.769680000000     0.095660000000     0.739280000000    -0.0522674  
C246     C      0.758660000000     0.092020000000     0.789190000000    -0.00671    
C247     C      0.701520000000     0.371020000000     0.293890000000    -0.00613048 
C248     C      0.692620000000     0.371620000000     0.243640000000    -0.0534168  
C249     C      0.665810000000     0.372070000000     0.234900000000    -0.00588866 
C250     C      0.648200000000     0.371870000000     0.275560000000    -0.00679523 
C251     C      0.656870000000     0.370880000000     0.325800000000    -0.0519591  
C252     C      0.683730000000     0.370490000000     0.334590000000    -0.00685966 
C253     C      0.823410000000     0.472020000000     0.044910000000    -0.00676462 
C254     C      0.792480000000     0.457400000000     0.056490000000    -0.0519609  
C255     C      0.775960000000     0.471620000000     0.047080000000    -0.00707905 
C256     C      0.789920000000     0.999710000000     0.026260000000    -0.0069672  
C257     C      0.820810000000     0.014390000000     0.014600000000    -0.0524074  
C258     C      0.837480000000     0.000330000000     0.024290000000    -0.00642631 
C259     C      0.700930000000     0.322710000000     0.937880000000    -0.00635341 
C260     C      0.692760000000     0.313250000000     0.988250000000    -0.0531687  
C261     C      0.666800000000     0.286070000000     0.997410000000    -0.00605334 
C262     C      0.649350000000     0.268680000000     0.957040000000    -0.00634308 
C263     C      0.657270000000     0.278280000000     0.906700000000    -0.052845   
C264     C      0.683230000000     0.305470000000     0.897470000000    -0.00643396 
C265     C      0.776260000000     0.173330000000     0.401400000000    -0.00605523 
C266     C      0.805190000000     0.197360000000     0.409840000000    -0.0532064  
C267     C      0.816020000000     0.204360000000     0.459890000000    -0.00624616 
C268     C      0.798520000000     0.187230000000     0.500570000000    -0.00674965 
C269     C      0.769730000000     0.162960000000     0.492020000000    -0.0522372  
C270     C      0.758650000000     0.156410000000     0.442080000000    -0.00675657 
C271     C      0.971290000000     0.283460000000     0.341560000000    -0.00705564 
C272     C      0.953250000000     0.296590000000     0.340770000000    -0.051904   
C273     C      0.964750000000     0.324790000000     0.361460000000    -0.00674943 
C274     C      0.493630000000     0.339430000000     0.382850000000    -0.00600645 
C275     C      0.511500000000     0.326100000000     0.384080000000    -0.0529488  
C276     C      0.500040000000     0.298010000000     0.363020000000    -0.00610192 
C277     C      0.789420000000     0.280570000000     0.208470000000    -0.00677376 
C278     C      0.820530000000     0.295680000000     0.218270000000    -0.0524729  
C279     C      0.837460000000     0.325690000000     0.206550000000    -0.00646635 
C280     C      0.823440000000     0.340300000000     0.185700000000    -0.00663562 
C281     C      0.792290000000     0.325090000000     0.175880000000    -0.0522896  
C282     C      0.775490000000     0.295070000000     0.187390000000    -0.00690617 
C283     C      0.864540000000     0.202370000000     0.105990000000    -0.006523   
C284     C      0.865390000000     0.194460000000     0.156670000000    -0.0528887  
C285     C      0.866420000000     0.168770000000     0.166620000000    -0.00622238 
C286     C      0.866460000000     0.151280000000     0.126710000000    -0.00668735 
C287     C      0.865160000000     0.158970000000     0.076060000000    -0.0525793  
C288     C      0.864270000000     0.184730000000     0.066110000000    -0.00636463 
C289     C      0.824180000000     0.714550000000     0.366520000000     0.28454    
C290     C      0.864650000000     0.712600000000     0.198900000000     0.284746   
C291     C      0.834940000000     0.779880000000     0.240310000000     0.283307   
C292     C      0.922420000000     0.780510000000     0.319490000000     0.283193   
C293     C      0.710810000000     0.831760000000     0.031170000000     0.284555   
C294     C      0.710780000000     0.871100000000     0.200480000000     0.284594   
C295     C      0.776990000000     0.840170000000     0.154440000000     0.282641   
C296     C      0.777080000000     0.927340000000     0.077590000000     0.282453   
C297     C      0.864300000000     0.640050000000     0.033830000000     0.284558   
C298     C      0.824190000000     0.598250000000     0.865620000000     0.284047   
C299     C      0.922580000000     0.630850000000     0.913260000000     0.282948   
C300     C      0.835200000000     0.544210000000     0.992610000000     0.283247   
C301     C      0.638440000000     0.760040000000     0.864160000000     0.284557   
C302     C      0.600900000000     0.760060000000     0.698870000000     0.2848     
C303     C      0.625130000000     0.688440000000     0.743260000000     0.286077   
C304     C      0.541970000000     0.691840000000     0.825220000000     0.284789   
C305     C      0.751820000000     0.643830000000     0.534540000000     0.282945   
C306     C      0.751780000000     0.597040000000     0.696440000000     0.282833   
C307     C      0.685190000000     0.630580000000     0.656410000000     0.283415   
C308     C      0.685250000000     0.545020000000     0.574860000000     0.283706   
C309     C      0.600950000000     0.833080000000     0.535060000000     0.283144   
C310     C      0.637960000000     0.870200000000     0.368710000000     0.28299    
C311     C      0.541840000000     0.841080000000     0.407390000000     0.285847   
C312     C      0.625220000000     0.928250000000     0.490050000000     0.285971   
C313     C      0.681530000000     0.508380000000     0.511010000000    -0.00668295 
C314     C      0.669110000000     0.515280000000     0.552680000000    -0.052694   
C315     C      0.641460000000     0.493530000000     0.572760000000    -0.00674166 
C316     C      0.626850000000     0.465250000000     0.552090000000    -0.00598554 
C317     C      0.639530000000     0.958350000000     0.510720000000    -0.0540726  
C318     C      0.666870000000     0.980300000000     0.490170000000    -0.00604786 
C319     C      0.626970000000     0.653720000000     0.679910000000    -0.00596906 
C320     C      0.639370000000     0.672290000000     0.722150000000    -0.0537302  
C321     C      0.666430000000     0.676400000000     0.743060000000    -0.00601916 
C322     C      0.681120000000     0.662730000000     0.721690000000    -0.00670373 
C323     C      0.668990000000     0.644430000000     0.679130000000    -0.0525462  
C324     C      0.641600000000     0.639790000000     0.658710000000    -0.00673122 
C325     C      0.573940000000     0.777470000000     0.641820000000    -0.00620967 
C326     C      0.600840000000     0.778670000000     0.656910000000    -0.0532162  
C327     C      0.627760000000     0.797930000000     0.631670000000    -0.00617621 
C328     C      0.627770000000     0.815590000000     0.592090000000    -0.00675772 
C329     C      0.600890000000     0.814450000000     0.577050000000    -0.0526879  
C330     C      0.573970000000     0.795230000000     0.602350000000    -0.00660791 
C331     C      0.965680000000     0.630340000000     0.868620000000    -0.00666446 
C332     C      0.953440000000     0.646060000000     0.891920000000    -0.0518438  
C333     C      0.970690000000     0.676790000000     0.893590000000    -0.00715185 
C334     C      0.499420000000     0.691510000000     0.872080000000    -0.00629142 
C335     C      0.511620000000     0.675880000000     0.848380000000    -0.0524077  
C336     C      0.494520000000     0.645110000000     0.847060000000    -0.00635743 
C337     C      0.776300000000     0.592620000000     0.830150000000    -0.00610787 
C338     C      0.805180000000     0.596540000000     0.822030000000    -0.053072   
C339     C      0.815930000000     0.599450000000     0.772040000000    -0.00628473 
C340     C      0.798420000000     0.599180000000     0.731060000000    -0.00670018 
C341     C      0.769690000000     0.595650000000     0.739280000000    -0.0521738  
C342     C      0.758670000000     0.592020000000     0.789190000000    -0.00675171 
C343     C      0.701530000000     0.871020000000     0.293900000000    -0.00623269 
C344     C      0.692630000000     0.871620000000     0.243650000000    -0.0532697  
C345     C      0.665810000000     0.872070000000     0.234900000000    -0.00603311 
C346     C      0.648210000000     0.871870000000     0.275570000000    -0.00669031 
C347     C      0.656880000000     0.870880000000     0.325800000000    -0.0520456  
C348     C      0.683730000000     0.870490000000     0.334590000000    -0.00677882 
C349     C      0.823410000000     0.972030000000     0.044920000000    -0.00677067 
C350     C      0.792470000000     0.957400000000     0.056490000000    -0.0520034  
C351     C      0.775950000000     0.971610000000     0.047070000000    -0.00696124 
C352     C      0.789920000000     0.499710000000     0.026270000000    -0.00667388 
C353     C      0.820810000000     0.514390000000     0.014600000000    -0.0526327  
C354     C      0.837480000000     0.500330000000     0.024280000000    -0.00641229 
C355     C      0.700930000000     0.822710000000     0.937880000000    -0.00635339 
C356     C      0.692760000000     0.813250000000     0.988250000000    -0.0532197  
C357     C      0.666810000000     0.786070000000     0.997410000000    -0.0060223  
C358     C      0.649350000000     0.768680000000     0.957040000000    -0.00635025 
C359     C      0.657270000000     0.778280000000     0.906700000000    -0.0528561  
C360     C      0.683240000000     0.805460000000     0.897480000000    -0.00640397 
C361     C      0.776260000000     0.673330000000     0.401400000000    -0.00611745 
C362     C      0.805200000000     0.697360000000     0.409840000000    -0.0531889  
C363     C      0.816020000000     0.704360000000     0.459890000000    -0.00623634 
C364     C      0.798520000000     0.687230000000     0.500560000000    -0.00670417 
C365     C      0.769740000000     0.662960000000     0.492020000000    -0.052268   
C366     C      0.758660000000     0.656410000000     0.442080000000    -0.00671103 
C367     C      0.971300000000     0.783460000000     0.341550000000    -0.00716352 
C368     C      0.953260000000     0.796600000000     0.340770000000    -0.0518951  
C369     C      0.964750000000     0.824790000000     0.361460000000    -0.00674148 
C370     C      0.493640000000     0.839430000000     0.382860000000    -0.00599498 
C371     C      0.511500000000     0.826100000000     0.384090000000    -0.0529425  
C372     C      0.500050000000     0.798020000000     0.363020000000    -0.00601711 
C373     C      0.789420000000     0.780580000000     0.208480000000    -0.0067782  
C374     C      0.820530000000     0.795680000000     0.218270000000    -0.0524348  
C375     C      0.837470000000     0.825690000000     0.206540000000    -0.00647972 
C376     C      0.823440000000     0.840300000000     0.185690000000    -0.00667712 
C377     C      0.792290000000     0.825080000000     0.175890000000    -0.0521886  
C378     C      0.775500000000     0.795070000000     0.187410000000    -0.00690194 
C379     C      0.864540000000     0.702370000000     0.105990000000    -0.00652115 
C380     C      0.865390000000     0.694460000000     0.156670000000    -0.0528989  
C381     C      0.866430000000     0.668780000000     0.166620000000    -0.00620745 
C382     C      0.866470000000     0.651290000000     0.126710000000    -0.00664877 
C383     C      0.865170000000     0.658970000000     0.076050000000    -0.0526887  
C384     C      0.864280000000     0.684730000000     0.066100000000    -0.00635178 
Cd1      Cd     0.361620000000     0.247260000000     0.281360000000     0.508695   
Cd2      Cd     0.244860000000     0.368090000000     0.115780000000     0.509251   
Cd3      Cd     0.361620000000     0.102730000000     0.951270000000     0.508839   
Cd4      Cd     0.101380000000     0.224220000000     0.781540000000     0.509452   
Cd5      Cd     0.217810000000     0.103760000000     0.615320000000     0.509499   
Cd6      Cd     0.101100000000     0.369110000000     0.452190000000     0.50916    
Cd7      Cd     0.361630000000     0.747260000000     0.281350000000     0.508693   
Cd8      Cd     0.244870000000     0.868090000000     0.115780000000     0.509225   
Cd9      Cd     0.361630000000     0.602730000000     0.951260000000     0.508825   
Cd10     Cd     0.101380000000     0.724220000000     0.781530000000     0.509427   
Cd11     Cd     0.217820000000     0.603760000000     0.615310000000     0.509485   
Cd12     Cd     0.101110000000     0.869120000000     0.452190000000     0.509147   
Cd13     Cd     0.861620000000     0.247260000000     0.281360000000     0.508697   
Cd14     Cd     0.744870000000     0.368090000000     0.115780000000     0.509249   
Cd15     Cd     0.861620000000     0.102730000000     0.951270000000     0.50884    
Cd16     Cd     0.601380000000     0.224220000000     0.781540000000     0.509452   
Cd17     Cd     0.717810000000     0.103760000000     0.615320000000     0.5095     
Cd18     Cd     0.601100000000     0.369110000000     0.452190000000     0.509147   
Cd19     Cd     0.861630000000     0.747260000000     0.281350000000     0.508693   
Cd20     Cd     0.744870000000     0.868090000000     0.115780000000     0.509226   
Cd21     Cd     0.861630000000     0.602730000000     0.951260000000     0.508823   
Cd22     Cd     0.601390000000     0.724220000000     0.781530000000     0.509434   
Cd23     Cd     0.717820000000     0.603760000000     0.615310000000     0.509485   
Cd24     Cd     0.601110000000     0.869120000000     0.452190000000     0.509147   
H1       H      0.202720000000     0.024690000000     0.494480000000     0.0576787  
H2       H      0.131320000000     0.998230000000     0.604840000000     0.0572916  
H3       H      0.105810000000     0.948770000000     0.568740000000     0.0569354  
H4       H      0.177260000000     0.475690000000     0.458340000000     0.0573557  
H5       H      0.106130000000     0.150140000000     0.662980000000     0.0569539  
H6       H      0.176600000000     0.190610000000     0.775550000000     0.0574838  
H7       H      0.202100000000     0.166620000000     0.738510000000     0.0577107  
H8       H      0.131680000000     0.125750000000     0.625960000000     0.057264   
H9       H      0.052830000000     0.262880000000     0.660620000000     0.0572283  
H10      H      0.148840000000     0.299340000000     0.642390000000     0.0574801  
H11      H      0.148870000000     0.330160000000     0.573310000000     0.0577103  
H12      H      0.052880000000     0.293830000000     0.591600000000     0.057352   
H13      H      0.452900000000     0.106640000000     0.866680000000     0.0577425  
H14      H      0.461930000000     0.189570000000     0.911260000000     0.0574662  
H15      H      0.012010000000     0.215210000000     0.873890000000     0.0575708  
H16      H      0.003330000000     0.132460000000     0.829120000000     0.0572202  
H17      H      0.267330000000     0.090190000000     0.868230000000     0.0575206  
H18      H      0.338110000000     0.102500000000     0.764610000000     0.056737   
H19      H      0.307490000000     0.102000000000     0.693010000000     0.0573801  
H20      H      0.236630000000     0.089310000000     0.796780000000     0.0575364  
H21      H      0.222040000000     0.370580000000     0.301800000000     0.0565547  
H22      H      0.158380000000     0.372570000000     0.196580000000     0.0575742  
H23      H      0.127620000000     0.372180000000     0.267590000000     0.0571762  
H24      H      0.191040000000     0.369830000000     0.372920000000     0.0576173  
H25      H      0.336730000000     0.461620000000     0.051750000000     0.0575776  
H26      H      0.252090000000     0.460970000000     0.055470000000     0.0576186  
H27      H      0.276430000000     0.009930000000     0.019400000000     0.057628   
H28      H      0.361330000000     0.011110000000     0.015710000000     0.0573606  
H29      H      0.220780000000     0.343600000000     0.929680000000     0.056543   
H30      H      0.159970000000     0.278170000000     0.035830000000     0.0575785  
H31      H      0.129450000000     0.247850000000     0.965340000000     0.0571009  
H32      H      0.189940000000     0.313390000000     0.859040000000     0.0572612  
H33      H      0.267240000000     0.167460000000     0.363280000000     0.0574893  
H34      H      0.338230000000     0.222760000000     0.467580000000     0.0567675  
H35      H      0.307650000000     0.192850000000     0.538640000000     0.0574363  
H36      H      0.236580000000     0.137820000000     0.434250000000     0.0574948  
H37      H      0.463110000000     0.261750000000     0.325960000000     0.0574872  
H38      H      0.451380000000     0.335490000000     0.361410000000     0.0577786  
H39      H      0.001860000000     0.361080000000     0.398740000000     0.0572086  
H40      H      0.013250000000     0.287150000000     0.363240000000     0.0573209  
H41      H      0.275730000000     0.257430000000     0.216920000000     0.0574982  
H42      H      0.361490000000     0.337910000000     0.213670000000     0.0573795  
H43      H      0.336970000000     0.363450000000     0.177230000000     0.0574746  
H44      H      0.251450000000     0.282700000000     0.180420000000     0.0575553  
H45      H      0.363690000000     0.222010000000     0.097100000000     0.0569043  
H46      H      0.367150000000     0.162130000000     0.205280000000     0.0575002  
H47      H      0.367130000000     0.131550000000     0.135600000000     0.0568829  
H48      H      0.363340000000     0.191280000000     0.027460000000     0.0576115  
H49      H      0.202720000000     0.524690000000     0.494480000000     0.0576503  
H50      H      0.131330000000     0.498230000000     0.604830000000     0.0572975  
H51      H      0.105800000000     0.448780000000     0.568730000000     0.0569382  
H52      H      0.177260000000     0.975690000000     0.458340000000     0.0573182  
H53      H      0.106140000000     0.650140000000     0.662970000000     0.0569539  
H54      H      0.176610000000     0.690610000000     0.775540000000     0.0574743  
H55      H      0.202100000000     0.666620000000     0.738510000000     0.0577001  
H56      H      0.131680000000     0.625760000000     0.625950000000     0.057243   
H57      H      0.052830000000     0.762870000000     0.660590000000     0.0571887  
H58      H      0.148860000000     0.799350000000     0.642420000000     0.0574478  
H59      H      0.148880000000     0.830180000000     0.573340000000     0.0577028  
H60      H      0.052880000000     0.793820000000     0.591580000000     0.057362   
H61      H      0.452910000000     0.606640000000     0.866690000000     0.0577191  
H62      H      0.461940000000     0.689570000000     0.911240000000     0.0575164  
H63      H      0.012010000000     0.715210000000     0.873870000000     0.0575539  
H64      H      0.003340000000     0.632460000000     0.829130000000     0.0572186  
H65      H      0.267340000000     0.590190000000     0.868230000000     0.0575362  
H66      H      0.338110000000     0.602490000000     0.764600000000     0.0567326  
H67      H      0.307500000000     0.601990000000     0.693000000000     0.0573616  
H68      H      0.236640000000     0.589310000000     0.796770000000     0.0575414  
H69      H      0.222050000000     0.870580000000     0.301800000000     0.0565735  
H70      H      0.158390000000     0.872570000000     0.196580000000     0.0576228  
H71      H      0.127630000000     0.872180000000     0.267590000000     0.0571335  
H72      H      0.191040000000     0.869830000000     0.372920000000     0.057603   
H73      H      0.336730000000     0.961620000000     0.051760000000     0.057558   
H74      H      0.252080000000     0.960960000000     0.055460000000     0.0575749  
H75      H      0.276430000000     0.509940000000     0.019410000000     0.0575106  
H76      H      0.361330000000     0.511110000000     0.015700000000     0.0573354  
H77      H      0.220790000000     0.843590000000     0.929680000000     0.0565573  
H78      H      0.159970000000     0.778170000000     0.035830000000     0.0575682  
H79      H      0.129450000000     0.747850000000     0.965340000000     0.0571013  
H80      H      0.189950000000     0.813390000000     0.859040000000     0.0572334  
H81      H      0.267250000000     0.667460000000     0.363280000000     0.0575067  
H82      H      0.338240000000     0.722760000000     0.467580000000     0.0567617  
H83      H      0.307660000000     0.692840000000     0.538640000000     0.0574194  
H84      H      0.236580000000     0.637820000000     0.434240000000     0.0574696  
H85      H      0.463120000000     0.761760000000     0.325950000000     0.0575173  
H86      H      0.451380000000     0.835490000000     0.361420000000     0.0577677  
H87      H      0.001860000000     0.861080000000     0.398760000000     0.057206   
H88      H      0.013260000000     0.787150000000     0.363230000000     0.0572873  
H89      H      0.275730000000     0.757440000000     0.216940000000     0.0574892  
H90      H      0.361500000000     0.837910000000     0.213650000000     0.0573796  
H91      H      0.336970000000     0.863450000000     0.177220000000     0.0574894  
H92      H      0.251450000000     0.782710000000     0.180440000000     0.0575593  
H93      H      0.363690000000     0.722010000000     0.097100000000     0.0568833  
H94      H      0.367160000000     0.662130000000     0.205280000000     0.0574807  
H95      H      0.367140000000     0.631560000000     0.135590000000     0.0568824  
H96      H      0.363350000000     0.691280000000     0.027460000000     0.0576205  
H97      H      0.702720000000     0.024690000000     0.494480000000     0.0576729  
H98      H      0.631320000000     0.998230000000     0.604840000000     0.057294   
H99      H      0.605800000000     0.948770000000     0.568740000000     0.056924   
H100     H      0.677260000000     0.475690000000     0.458340000000     0.0573572  
H101     H      0.606130000000     0.150140000000     0.662980000000     0.0569553  
H102     H      0.676600000000     0.190610000000     0.775550000000     0.0574842  
H103     H      0.702100000000     0.166620000000     0.738510000000     0.0577111  
H104     H      0.631680000000     0.125750000000     0.625960000000     0.0572649  
H105     H      0.552830000000     0.262880000000     0.660620000000     0.0572212  
H106     H      0.648850000000     0.299340000000     0.642390000000     0.05745    
H107     H      0.648870000000     0.330160000000     0.573310000000     0.0577321  
H108     H      0.552880000000     0.293830000000     0.591600000000     0.0573695  
H109     H      0.952900000000     0.106640000000     0.866680000000     0.0577684  
H110     H      0.961930000000     0.189570000000     0.911260000000     0.0574918  
H111     H      0.512010000000     0.215210000000     0.873890000000     0.0576303  
H112     H      0.503330000000     0.132460000000     0.829120000000     0.057279   
H113     H      0.767330000000     0.090190000000     0.868230000000     0.057524   
H114     H      0.838110000000     0.102500000000     0.764610000000     0.0567408  
H115     H      0.807490000000     0.102000000000     0.693010000000     0.0573779  
H116     H      0.736630000000     0.089310000000     0.796780000000     0.0575321  
H117     H      0.722040000000     0.370580000000     0.301800000000     0.05655    
H118     H      0.658380000000     0.372570000000     0.196580000000     0.0575796  
H119     H      0.627620000000     0.372180000000     0.267590000000     0.0571697  
H120     H      0.691040000000     0.369830000000     0.372920000000     0.0576344  
H121     H      0.836730000000     0.461620000000     0.051750000000     0.0575803  
H122     H      0.752090000000     0.460970000000     0.055470000000     0.0576198  
H123     H      0.776430000000     0.009930000000     0.019400000000     0.057629   
H124     H      0.861330000000     0.011110000000     0.015710000000     0.0573653  
H125     H      0.720780000000     0.343600000000     0.929680000000     0.0565453  
H126     H      0.659970000000     0.278170000000     0.035830000000     0.0575805  
H127     H      0.629450000000     0.247850000000     0.965340000000     0.0571023  
H128     H      0.689950000000     0.313390000000     0.859040000000     0.0572542  
H129     H      0.767240000000     0.167460000000     0.363280000000     0.0574938  
H130     H      0.838230000000     0.222760000000     0.467580000000     0.0567719  
H131     H      0.807650000000     0.192850000000     0.538640000000     0.0574377  
H132     H      0.736570000000     0.137820000000     0.434250000000     0.0574846  
H133     H      0.963110000000     0.261750000000     0.325960000000     0.0574849  
H134     H      0.951380000000     0.335490000000     0.361410000000     0.057788   
H135     H      0.501860000000     0.361080000000     0.398740000000     0.057261   
H136     H      0.513250000000     0.287150000000     0.363240000000     0.0573197  
H137     H      0.775730000000     0.257430000000     0.216920000000     0.0574988  
H138     H      0.861490000000     0.337910000000     0.213670000000     0.0573833  
H139     H      0.836970000000     0.363450000000     0.177230000000     0.057477   
H140     H      0.751450000000     0.282700000000     0.180420000000     0.0575558  
H141     H      0.863690000000     0.222010000000     0.097100000000     0.0568891  
H142     H      0.867150000000     0.162130000000     0.205280000000     0.0574988  
H143     H      0.867130000000     0.131550000000     0.135600000000     0.0568914  
H144     H      0.863340000000     0.191280000000     0.027460000000     0.0576218  
H145     H      0.702720000000     0.524690000000     0.494480000000     0.0576501  
H146     H      0.631330000000     0.498230000000     0.604830000000     0.0572992  
H147     H      0.605800000000     0.448780000000     0.568730000000     0.0569396  
H148     H      0.677260000000     0.975690000000     0.458340000000     0.0573407  
H149     H      0.606140000000     0.650140000000     0.662970000000     0.0569541  
H150     H      0.676610000000     0.690610000000     0.775540000000     0.0574726  
H151     H      0.702100000000     0.666620000000     0.738510000000     0.0577013  
H152     H      0.631690000000     0.625760000000     0.625950000000     0.0572556  
H153     H      0.552830000000     0.762870000000     0.660590000000     0.0571923  
H154     H      0.648860000000     0.799350000000     0.642420000000     0.0574477  
H155     H      0.648880000000     0.830180000000     0.573340000000     0.0577035  
H156     H      0.552880000000     0.793820000000     0.591580000000     0.0573649  
H157     H      0.952910000000     0.606640000000     0.866690000000     0.0577423  
H158     H      0.961940000000     0.689570000000     0.911240000000     0.0575463  
H159     H      0.512010000000     0.715210000000     0.873870000000     0.0576112  
H160     H      0.503340000000     0.632460000000     0.829130000000     0.0572744  
H161     H      0.767340000000     0.590190000000     0.868230000000     0.0575368  
H162     H      0.838110000000     0.602490000000     0.764600000000     0.0567344  
H163     H      0.807500000000     0.601990000000     0.693000000000     0.0573637  
H164     H      0.736640000000     0.589310000000     0.796770000000     0.0575424  
H165     H      0.722050000000     0.870580000000     0.301800000000     0.0565746  
H166     H      0.658390000000     0.872570000000     0.196580000000     0.0576246  
H167     H      0.627630000000     0.872180000000     0.267590000000     0.0571354  
H168     H      0.691040000000     0.869830000000     0.372920000000     0.0576039  
H169     H      0.836730000000     0.961620000000     0.051760000000     0.0575604  
H170     H      0.752080000000     0.960960000000     0.055460000000     0.0575758  
H171     H      0.776430000000     0.509940000000     0.019410000000     0.0575115  
H172     H      0.861330000000     0.511110000000     0.015700000000     0.0573398  
H173     H      0.720790000000     0.843590000000     0.929680000000     0.0565445  
H174     H      0.659970000000     0.778170000000     0.035830000000     0.0575667  
H175     H      0.629450000000     0.747850000000     0.965340000000     0.0571055  
H176     H      0.689950000000     0.813390000000     0.859040000000     0.0572348  
H177     H      0.767250000000     0.667460000000     0.363280000000     0.0575077  
H178     H      0.838240000000     0.722760000000     0.467580000000     0.0567646  
H179     H      0.807660000000     0.692840000000     0.538640000000     0.0574213  
H180     H      0.736580000000     0.637820000000     0.434240000000     0.0574694  
H181     H      0.963120000000     0.761760000000     0.325950000000     0.0575191  
H182     H      0.951380000000     0.835490000000     0.361420000000     0.0577843  
H183     H      0.501860000000     0.861080000000     0.398760000000     0.0572516  
H184     H      0.513260000000     0.787150000000     0.363230000000     0.0572887  
H185     H      0.775730000000     0.757440000000     0.216940000000     0.0574962  
H186     H      0.861500000000     0.837910000000     0.213650000000     0.0573895  
H187     H      0.836970000000     0.863450000000     0.177220000000     0.0574896  
H188     H      0.751450000000     0.782710000000     0.180440000000     0.0575582  
H189     H      0.863690000000     0.722010000000     0.097100000000     0.0568893  
H190     H      0.867160000000     0.662130000000     0.205280000000     0.0574883  
H191     H      0.867140000000     0.631560000000     0.135590000000     0.0568831  
H192     H      0.863350000000     0.691280000000     0.027460000000     0.0576206  
O1       O      0.361150000000     0.204000000000     0.244530000000    -0.22781    
O2       O      0.404820000000     0.290870000000     0.320180000000    -0.225533   
O3       O      0.317040000000     0.206020000000     0.321170000000    -0.227906   
O4       O      0.319450000000     0.253510000000     0.254500000000    -0.232992   
O5       O      0.363200000000     0.291650000000     0.245520000000    -0.226506   
O6       O      0.348670000000     0.238320000000     0.372680000000    -0.233331   
O7       O      0.366980000000     0.237370000000     0.191380000000    -0.233337   
O8       O      0.411950000000     0.255180000000     0.300600000000    -0.232697   
O9       O      0.200810000000     0.366730000000     0.155510000000    -0.227426   
O10      O      0.290220000000     0.412560000000     0.083050000000    -0.225386   
O11      O      0.201080000000     0.326300000000     0.076250000000    -0.227508   
O12      O      0.249390000000     0.326110000000     0.142630000000    -0.233478   
O13      O      0.290340000000     0.367640000000     0.147720000000    -0.225706   
O14      O      0.236590000000     0.354080000000     0.024960000000    -0.233671   
O15      O      0.236820000000     0.374460000000     0.206420000000    -0.233756   
O16      O      0.249630000000     0.414810000000     0.090360000000    -0.233385   
O17      O      0.317250000000     0.100660000000     0.910720000000    -0.227576   
O18      O      0.363330000000     0.059460000000     0.985190000000    -0.226665   
O19      O      0.359000000000     0.144240000000     0.988610000000    -0.227057   
O20      O      0.411140000000     0.144990000000     0.932780000000    -0.233197   
O21      O      0.405910000000     0.103240000000     0.911960000000    -0.22523    
O22      O      0.368490000000     0.118590000000     0.040950000000    -0.233012   
O23      O      0.348480000000     0.097870000000     0.859940000000    -0.233373   
O24      O      0.319790000000     0.055980000000     0.980530000000    -0.2334     
O25      O      0.125000000000     0.261830000000     0.714920000000    -0.229529   
O26      O      0.054170000000     0.178760000000     0.804120000000    -0.229545   
O27      O      0.141890000000     0.269840000000     0.819330000000    -0.228374   
O28      O      0.135620000000     0.204410000000     0.782210000000    -0.234353   
O29      O      0.102760000000     0.188190000000     0.722380000000    -0.231351   
O30      O      0.117850000000     0.233750000000     0.870670000000    -0.230449   
O31      O      0.076900000000     0.241590000000     0.720910000000    -0.231309   
O32      O      0.057180000000     0.219540000000     0.825550000000    -0.230105   
O33      O      0.262880000000     0.105310000000     0.652560000000    -0.227208   
O34      O      0.173630000000     0.053480000000     0.608500000000    -0.228336   
O35      O      0.262910000000     0.146090000000     0.578360000000    -0.227476   
O36      O      0.211430000000     0.137430000000     0.670770000000    -0.232784   
O37      O      0.173750000000     0.111290000000     0.621980000000    -0.228194   
O38      O      0.224870000000     0.123510000000     0.528550000000    -0.2314     
O39      O      0.224840000000     0.091240000000     0.702270000000    -0.231206   
O40      O      0.211650000000     0.063530000000     0.560890000000    -0.233008   
O41      O      0.142700000000     0.365100000000     0.413730000000    -0.224914   
O42      O      0.102520000000     0.406960000000     0.510570000000    -0.231827   
O43      O      0.124510000000     0.349400000000     0.509910000000    -0.227795   
O44      O      0.057360000000     0.328560000000     0.410960000000    -0.231825   
O45      O      0.053700000000     0.366890000000     0.424890000000    -0.229841   
O46      O      0.077420000000     0.333520000000     0.522050000000    -0.231263   
O47      O      0.116080000000     0.374660000000     0.362370000000    -0.23002    
O48      O      0.135920000000     0.422180000000     0.451790000000    -0.235229   
O49      O      0.361160000000     0.704000000000     0.244530000000    -0.227821   
O50      O      0.404830000000     0.790870000000     0.320180000000    -0.225719   
O51      O      0.317050000000     0.706020000000     0.321170000000    -0.227956   
O52      O      0.319450000000     0.753510000000     0.254510000000    -0.232962   
O53      O      0.363200000000     0.791650000000     0.245510000000    -0.226501   
O54      O      0.348680000000     0.738320000000     0.372680000000    -0.233263   
O55      O      0.366990000000     0.737370000000     0.191380000000    -0.233363   
O56      O      0.411960000000     0.755190000000     0.300600000000    -0.232873   
O57      O      0.200810000000     0.866730000000     0.155510000000    -0.227348   
O58      O      0.290220000000     0.912560000000     0.083060000000    -0.225604   
O59      O      0.201080000000     0.826300000000     0.076250000000    -0.227506   
O60      O      0.249390000000     0.826100000000     0.142640000000    -0.233485   
O61      O      0.290350000000     0.867640000000     0.147710000000    -0.225712   
O62      O      0.236590000000     0.854070000000     0.024960000000    -0.233675   
O63      O      0.236830000000     0.874460000000     0.206420000000    -0.233739   
O64      O      0.249630000000     0.914800000000     0.090360000000    -0.233358   
O65      O      0.317250000000     0.600660000000     0.910720000000    -0.22747    
O66      O      0.363330000000     0.559460000000     0.985180000000    -0.226811   
O67      O      0.359000000000     0.644240000000     0.988610000000    -0.227124   
O68      O      0.411140000000     0.644990000000     0.932770000000    -0.233097   
O69      O      0.405920000000     0.603240000000     0.911960000000    -0.225193   
O70      O      0.368500000000     0.618600000000     0.040950000000    -0.233022   
O71      O      0.348490000000     0.597860000000     0.859940000000    -0.233282   
O72      O      0.319800000000     0.555980000000     0.980540000000    -0.233472   
O73      O      0.125000000000     0.761840000000     0.714930000000    -0.229729   
O74      O      0.054180000000     0.678750000000     0.804130000000    -0.229509   
O75      O      0.141900000000     0.769840000000     0.819320000000    -0.22829    
O76      O      0.135630000000     0.704410000000     0.782200000000    -0.234326   
O77      O      0.102770000000     0.688190000000     0.722370000000    -0.231346   
O78      O      0.117860000000     0.733750000000     0.870670000000    -0.230414   
O79      O      0.076910000000     0.741580000000     0.720890000000    -0.231442   
O80      O      0.057180000000     0.719540000000     0.825540000000    -0.230113   
O81      O      0.262890000000     0.605310000000     0.652550000000    -0.2272     
O82      O      0.173640000000     0.553480000000     0.608490000000    -0.228367   
O83      O      0.262920000000     0.646090000000     0.578360000000    -0.227465   
O84      O      0.211440000000     0.637430000000     0.670770000000    -0.232759   
O85      O      0.173760000000     0.611290000000     0.621970000000    -0.228139   
O86      O      0.224880000000     0.623510000000     0.528540000000    -0.231477   
O87      O      0.224850000000     0.591240000000     0.702270000000    -0.231186   
O88      O      0.211650000000     0.563520000000     0.560890000000    -0.233112   
O89      O      0.142700000000     0.865100000000     0.413740000000    -0.224913   
O90      O      0.102520000000     0.906960000000     0.510580000000    -0.231819   
O91      O      0.124520000000     0.849410000000     0.509930000000    -0.22777    
O92      O      0.057370000000     0.828570000000     0.410950000000    -0.231759   
O93      O      0.053700000000     0.866900000000     0.424900000000    -0.229682   
O94      O      0.077420000000     0.833510000000     0.522040000000    -0.231161   
O95      O      0.116090000000     0.874660000000     0.362380000000    -0.230034   
O96      O      0.135920000000     0.922180000000     0.451790000000    -0.235256   
O97      O      0.861150000000     0.204000000000     0.244530000000    -0.227809   
O98      O      0.904820000000     0.290870000000     0.320180000000    -0.225541   
O99      O      0.817040000000     0.206020000000     0.321170000000    -0.227904   
O100     O      0.819450000000     0.253510000000     0.254500000000    -0.232991   
O101     O      0.863200000000     0.291650000000     0.245520000000    -0.226502   
O102     O      0.848670000000     0.238320000000     0.372680000000    -0.233328   
O103     O      0.866980000000     0.237370000000     0.191380000000    -0.233338   
O104     O      0.911950000000     0.255180000000     0.300600000000    -0.232706   
O105     O      0.700810000000     0.366730000000     0.155510000000    -0.227397   
O106     O      0.790220000000     0.412560000000     0.083050000000    -0.225398   
O107     O      0.701080000000     0.326300000000     0.076250000000    -0.227491   
O108     O      0.749390000000     0.326110000000     0.142630000000    -0.233493   
O109     O      0.790340000000     0.367640000000     0.147720000000    -0.225732   
O110     O      0.736590000000     0.354080000000     0.024960000000    -0.233671   
O111     O      0.736820000000     0.374460000000     0.206420000000    -0.233749   
O112     O      0.749630000000     0.414810000000     0.090360000000    -0.23337    
O113     O      0.817250000000     0.100660000000     0.910720000000    -0.227573   
O114     O      0.863330000000     0.059460000000     0.985190000000    -0.22666    
O115     O      0.859000000000     0.144240000000     0.988610000000    -0.227042   
O116     O      0.911140000000     0.144990000000     0.932780000000    -0.233194   
O117     O      0.905910000000     0.103240000000     0.911960000000    -0.225222   
O118     O      0.868490000000     0.118590000000     0.040950000000    -0.233083   
O119     O      0.848480000000     0.097870000000     0.859940000000    -0.23337    
O120     O      0.819790000000     0.055980000000     0.980530000000    -0.233397   
O121     O      0.625000000000     0.261830000000     0.714920000000    -0.229534   
O122     O      0.554170000000     0.178760000000     0.804120000000    -0.229528   
O123     O      0.641890000000     0.269840000000     0.819330000000    -0.228373   
O124     O      0.635620000000     0.204410000000     0.782210000000    -0.234353   
O125     O      0.602760000000     0.188190000000     0.722380000000    -0.23135    
O126     O      0.617850000000     0.233750000000     0.870670000000    -0.230448   
O127     O      0.576900000000     0.241590000000     0.720910000000    -0.231311   
O128     O      0.557180000000     0.219540000000     0.825550000000    -0.230088   
O129     O      0.762880000000     0.105310000000     0.652560000000    -0.227195   
O130     O      0.673630000000     0.053480000000     0.608500000000    -0.228337   
O131     O      0.762910000000     0.146090000000     0.578360000000    -0.227451   
O132     O      0.711430000000     0.137430000000     0.670770000000    -0.232786   
O133     O      0.673750000000     0.111290000000     0.621980000000    -0.228194   
O134     O      0.724870000000     0.123510000000     0.528550000000    -0.231477   
O135     O      0.724840000000     0.091240000000     0.702270000000    -0.231079   
O136     O      0.711650000000     0.063530000000     0.560890000000    -0.233004   
O137     O      0.642700000000     0.365100000000     0.413730000000    -0.224926   
O138     O      0.602520000000     0.406960000000     0.510570000000    -0.231826   
O139     O      0.624510000000     0.349400000000     0.509910000000    -0.227738   
O140     O      0.557360000000     0.328560000000     0.410960000000    -0.231821   
O141     O      0.553700000000     0.366890000000     0.424890000000    -0.229832   
O142     O      0.577410000000     0.333520000000     0.522050000000    -0.231111   
O143     O      0.616080000000     0.374660000000     0.362370000000    -0.230027   
O144     O      0.635920000000     0.422180000000     0.451790000000    -0.235228   
O145     O      0.861160000000     0.704000000000     0.244530000000    -0.227793   
O146     O      0.904830000000     0.790870000000     0.320180000000    -0.225712   
O147     O      0.817050000000     0.706020000000     0.321170000000    -0.227954   
O148     O      0.819450000000     0.753510000000     0.254510000000    -0.232993   
O149     O      0.863200000000     0.791650000000     0.245510000000    -0.226623   
O150     O      0.848680000000     0.738320000000     0.372680000000    -0.233261   
O151     O      0.866980000000     0.737370000000     0.191380000000    -0.233302   
O152     O      0.911960000000     0.755190000000     0.300600000000    -0.232873   
O153     O      0.700810000000     0.866730000000     0.155510000000    -0.227344   
O154     O      0.790220000000     0.912560000000     0.083060000000    -0.225527   
O155     O      0.701080000000     0.826300000000     0.076250000000    -0.227506   
O156     O      0.749390000000     0.826100000000     0.142640000000    -0.233486   
O157     O      0.790350000000     0.867640000000     0.147710000000    -0.225713   
O158     O      0.736590000000     0.854070000000     0.024960000000    -0.233677   
O159     O      0.736830000000     0.874460000000     0.206420000000    -0.233737   
O160     O      0.749630000000     0.914800000000     0.090360000000    -0.233438   
O161     O      0.817250000000     0.600660000000     0.910720000000    -0.22747    
O162     O      0.863330000000     0.559460000000     0.985180000000    -0.226804   
O163     O      0.859000000000     0.644240000000     0.988610000000    -0.227122   
O164     O      0.911150000000     0.644990000000     0.932770000000    -0.233313   
O165     O      0.905920000000     0.603240000000     0.911960000000    -0.225286   
O166     O      0.868500000000     0.618600000000     0.040950000000    -0.233018   
O167     O      0.848490000000     0.597860000000     0.859940000000    -0.233285   
O168     O      0.819800000000     0.555980000000     0.980540000000    -0.23347    
O169     O      0.625000000000     0.761840000000     0.714930000000    -0.229733   
O170     O      0.554180000000     0.678750000000     0.804130000000    -0.22948    
O171     O      0.641890000000     0.769840000000     0.819320000000    -0.228293   
O172     O      0.635630000000     0.704410000000     0.782200000000    -0.23436    
O173     O      0.602770000000     0.688190000000     0.722370000000    -0.231357   
O174     O      0.617860000000     0.733750000000     0.870670000000    -0.230412   
O175     O      0.576910000000     0.741580000000     0.720890000000    -0.231417   
O176     O      0.557180000000     0.719540000000     0.825540000000    -0.230066   
O177     O      0.762890000000     0.605310000000     0.652550000000    -0.227198   
O178     O      0.673640000000     0.553480000000     0.608490000000    -0.228424   
O179     O      0.762920000000     0.646090000000     0.578360000000    -0.227465   
O180     O      0.711440000000     0.637430000000     0.670770000000    -0.232757   
O181     O      0.673760000000     0.611290000000     0.621970000000    -0.228141   
O182     O      0.724880000000     0.623510000000     0.528540000000    -0.231481   
O183     O      0.724850000000     0.591240000000     0.702270000000    -0.231183   
O184     O      0.711650000000     0.563520000000     0.560890000000    -0.233045   
O185     O      0.642700000000     0.865100000000     0.413740000000    -0.224912   
O186     O      0.602520000000     0.906960000000     0.510580000000    -0.231816   
O187     O      0.624520000000     0.849410000000     0.509930000000    -0.227769   
O188     O      0.557370000000     0.828570000000     0.410950000000    -0.231753   
O189     O      0.553700000000     0.866900000000     0.424900000000    -0.229674   
O190     O      0.577420000000     0.833510000000     0.522040000000    -0.231159   
O191     O      0.616090000000     0.874660000000     0.362380000000    -0.230032   
O192     O      0.635920000000     0.922180000000     0.451790000000    -0.235253   


