data_structure

_audit_creation_method RASPA-1.0
_audit_creation_date 2023-6-5
_audit_author_name 'Poobodin Mano'

_cell_length_a    33.5527
_cell_length_b    33.5535
_cell_length_c    35.4772
_cell_angle_alpha 90.0579
_cell_angle_beta  89.8265
_cell_angle_gamma 90.0001
_cell_volume      39940.4

_symmetry_cell_setting          triclinic
_symmetry_space_group_name_Hall 'P 1'
_symmetry_space_group_name_H-M  'P 1'
_symmetry_Int_Tables_number     1

_symmetry_equiv_pos_as_xyz 'x,y,z'

loop_
_atom_site_label
_atom_site_type_symbol
_atom_site_fract_x
_atom_site_fract_y
_atom_site_fract_z
_atom_site_charge
C1       C      0.413470000000     0.319820000000     0.482980000000     0.283077   
C2       C      0.288660000000     0.287590000000     0.045300000000     0.282912   
C3       C      0.320880000000     0.412410000000     0.982710000000     0.282703   
C4       C      0.288720000000     0.287650000000     0.420380000000     0.283024   
C5       C      0.320880000000     0.584680000000     0.482780000000     0.282994   
C6       C      0.288660000000     0.709470000000     0.045530000000     0.282764   
C7       C      0.413470000000     0.677270000000     0.983080000000     0.282623   
C8       C      0.288700000000     0.709460000000     0.420610000000     0.282995   
C9       C      0.585750000000     0.319830000000     0.983240000000     0.282503   
C10      C      0.710550000000     0.287620000000     0.420710000000     0.282952   
C11      C      0.678340000000     0.412410000000     0.483380000000     0.283102   
C12      C      0.710520000000     0.287640000000     0.045630000000     0.282873   
C13      C      0.710560000000     0.709500000000     0.420930000000     0.282847   
C14      C      0.678340000000     0.584690000000     0.983440000000     0.282593   
C15      C      0.710500000000     0.709450000000     0.045850000000     0.282844   
C16      C      0.585740000000     0.677270000000     0.483350000000     0.282862   
C17      C      0.788650000000     0.209510000000     0.295280000000     0.28279    
C18      C      0.820880000000     0.084690000000     0.232780000000     0.28302    
C19      C      0.788720000000     0.209440000000     0.170360000000     0.282856   
C20      C      0.913470000000     0.177270000000     0.232720000000     0.283075   
C21      C      0.788680000000     0.787640000000     0.295680000000     0.282862   
C22      C      0.913470000000     0.819830000000     0.233230000000     0.283001   
C23      C      0.788680000000     0.787620000000     0.170760000000     0.282882   
C24      C      0.820880000000     0.912410000000     0.233000000000     0.283104   
C25      C      0.210560000000     0.787580000000     0.170950000000     0.282809   
C26      C      0.085740000000     0.819830000000     0.233430000000     0.283001   
C27      C      0.210500000000     0.787660000000     0.295870000000     0.283077   
C28      C      0.178330000000     0.912410000000     0.233540000000     0.282858   
C29      C      0.210530000000     0.209460000000     0.170560000000     0.282997   
C30      C      0.178340000000     0.084680000000     0.233320000000     0.282995   
C31      C      0.210540000000     0.209470000000     0.295480000000     0.282853   
C32      C      0.085750000000     0.177270000000     0.232930000000     0.283018   
C33      C      0.179920000000     0.977800000000     0.267620000000    -0.00676201 
C34      C      0.180190000000     0.956450000000     0.233510000000    -0.0525758  
C35      C      0.181140000000     0.977630000000     0.199360000000    -0.00671913 
C36      C      0.181150000000     0.019290000000     0.199310000000    -0.00663089 
C37      C      0.180190000000     0.040640000000     0.233400000000    -0.05269    
C38      C      0.179920000000     0.019460000000     0.267560000000    -0.00663213 
C39      C      0.978930000000     0.817680000000     0.199170000000    -0.00667615 
C40      C      0.957510000000     0.817970000000     0.233280000000    -0.0526713  
C41      C      0.978620000000     0.817590000000     0.267430000000    -0.00667798 
C42      C      0.020280000000     0.817580000000     0.267480000000    -0.00667546 
C43      C      0.041700000000     0.817970000000     0.233380000000    -0.0526718  
C44      C      0.020590000000     0.817680000000     0.199220000000    -0.00667694 
C45      C      0.818790000000     0.019300000000     0.198730000000    -0.00668347 
C46      C      0.819030000000     0.040640000000     0.232830000000    -0.0526178  
C47      C      0.818570000000     0.019470000000     0.266990000000    -0.00670744 
C48      C      0.818570000000     0.977810000000     0.267040000000    -0.00667318 
C49      C      0.819020000000     0.956460000000     0.232940000000    -0.0526432  
C50      C      0.818790000000     0.977630000000     0.198780000000    -0.00668541 
C51      C      0.978630000000     0.179920000000     0.266900000000    -0.00668903 
C52      C      0.957520000000     0.179120000000     0.232750000000    -0.0526433  
C53      C      0.978940000000     0.179010000000     0.198650000000    -0.0066706  
C54      C      0.020600000000     0.179010000000     0.198700000000    -0.0066523  
C55      C      0.041710000000     0.179120000000     0.232850000000    -0.0526821  
C56      C      0.020290000000     0.179920000000     0.266950000000    -0.00667407 
C57      C      0.714870000000     0.764860000000     0.373780000000    -0.00666095 
C58      C      0.730540000000     0.729490000000     0.388900000000    -0.0524228  
C59      C      0.765490000000     0.713410000000     0.373120000000    -0.00662239 
C60      C      0.784380000000     0.732300000000     0.342850000000    -0.00659273 
C61      C      0.768700000000     0.767660000000     0.327720000000    -0.0524625  
C62      C      0.733760000000     0.783740000000     0.343510000000    -0.00654485 
C63      C      0.714410000000     0.764380000000     0.093550000000    -0.00663527 
C64      C      0.730490000000     0.729430000000     0.077810000000    -0.0523725  
C65      C      0.765860000000     0.713770000000     0.092890000000    -0.00660605 
C66      C      0.784760000000     0.732670000000     0.123080000000    -0.00657937 
C67      C      0.768680000000     0.767620000000     0.138820000000    -0.0524561  
C68      C      0.733310000000     0.783280000000     0.123740000000    -0.00654581 
C69      C      0.765530000000     0.283670000000     0.372940000000    -0.00658098 
C70      C      0.730530000000     0.267640000000     0.388630000000    -0.0524502  
C71      C      0.714790000000     0.232350000000     0.373370000000    -0.00661295 
C72      C      0.733670000000     0.213470000000     0.343050000000    -0.00661712 
C73      C      0.768670000000     0.229500000000     0.327360000000    -0.0523764  
C74      C      0.784410000000     0.264790000000     0.342620000000    -0.00661801 
C75      C      0.733410000000     0.213710000000     0.123280000000    -0.00656504 
C76      C      0.768730000000     0.229430000000     0.138450000000    -0.0524782  
C77      C      0.784740000000     0.264440000000     0.122850000000    -0.00653171 
C78      C      0.765840000000     0.283350000000     0.092700000000    -0.00664693 
C79      C      0.730520000000     0.267640000000     0.077540000000    -0.0523417  
C80      C      0.714500000000     0.232620000000     0.093140000000    -0.00665804 
C81      C      0.680680000000     0.477700000000     0.449280000000    -0.00670892 
C82      C      0.680190000000     0.456460000000     0.483400000000    -0.0526401  
C83      C      0.680390000000     0.477740000000     0.017540000000    -0.00632181 
C84      C      0.680390000000     0.519400000000     0.017560000000    -0.00634814 
C85      C      0.680190000000     0.540640000000     0.983430000000    -0.0529659  
C86      C      0.680680000000     0.519360000000     0.449300000000    -0.00669409 
C87      C      0.284540000000     0.764650000000     0.373300000000    -0.00663758 
C88      C      0.268700000000     0.729460000000     0.388700000000    -0.0524335  
C89      C      0.233560000000     0.713560000000     0.373330000000    -0.00662672 
C90      C      0.214650000000     0.732470000000     0.343190000000    -0.00658694 
C91      C      0.230490000000     0.767670000000     0.327790000000    -0.0525026  
C92      C      0.265630000000     0.783560000000     0.343160000000    -0.00656879 
C93      C      0.265720000000     0.783450000000     0.123390000000    -0.00656128 
C94      C      0.230540000000     0.767600000000     0.138880000000    -0.0524403  
C95      C      0.214630000000     0.732480000000     0.123420000000    -0.00658857 
C96      C      0.233510000000     0.713600000000     0.093100000000    -0.00660621 
C97      C      0.268690000000     0.729450000000     0.077610000000    -0.0523568  
C98      C      0.284600000000     0.764570000000     0.093070000000    -0.00663107 
C99      C      0.478940000000     0.679670000000     0.449060000000    -0.00670999 
C100     C      0.457510000000     0.679120000000     0.983160000000    -0.0530061  
C101     C      0.478600000000     0.679260000000     0.017320000000    -0.00631447 
C102     C      0.520270000000     0.679260000000     0.017390000000    -0.00635102 
C103     C      0.541700000000     0.679120000000     0.483290000000    -0.0526316  
C104     C      0.520600000000     0.679670000000     0.449130000000    -0.00666607 
C105     C      0.284630000000     0.232530000000     0.372890000000    -0.0066107  
C106     C      0.268730000000     0.267670000000     0.388430000000    -0.0525164  
C107     C      0.233540000000     0.283510000000     0.373150000000    -0.0065736  
C108     C      0.214640000000     0.264610000000     0.342960000000    -0.00662448 
C109     C      0.230540000000     0.229470000000     0.327420000000    -0.0524285  
C110     C      0.265730000000     0.213630000000     0.342700000000    -0.00661705 
C111     C      0.284520000000     0.232410000000     0.092650000000    -0.00661882 
C112     C      0.268670000000     0.267600000000     0.077330000000    -0.0523682  
C113     C      0.233550000000     0.283510000000     0.092920000000    -0.00661768 
C114     C      0.214660000000     0.264620000000     0.123190000000    -0.00658125 
C115     C      0.230510000000     0.229440000000     0.138510000000    -0.0524221  
C116     C      0.265640000000     0.213530000000     0.122930000000    -0.00658595 
C117     C      0.478610000000     0.317930000000     0.017220000000    -0.00627371 
C118     C      0.457520000000     0.317970000000     0.483060000000    -0.0526526  
C119     C      0.478950000000     0.317330000000     0.448960000000    -0.006706   
C120     C      0.520610000000     0.317340000000     0.449030000000    -0.00669578 
C121     C      0.541710000000     0.317970000000     0.983190000000    -0.0529553  
C122     C      0.520280000000     0.317930000000     0.017290000000    -0.00636747 
C123     C      0.318040000000     0.519400000000     0.516840000000    -0.00668422 
C124     C      0.319030000000     0.540640000000     0.482730000000    -0.0526726  
C125     C      0.319330000000     0.519350000000     0.448590000000    -0.0066615  
C126     C      0.319330000000     0.477690000000     0.948570000000    -0.00667113 
C127     C      0.319030000000     0.456450000000     0.982700000000    -0.0530614  
C128     C      0.318040000000     0.477740000000     0.016820000000    -0.0062531  
C129     C      0.413480000000     0.319830000000     0.982980000000     0.282564   
C130     C      0.288660000000     0.287590000000     0.545300000000     0.282943   
C131     C      0.320880000000     0.412410000000     0.482710000000     0.283119   
C132     C      0.288720000000     0.287650000000     0.920380000000     0.282859   
C133     C      0.320880000000     0.584680000000     0.982780000000     0.282565   
C134     C      0.288660000000     0.709480000000     0.545530000000     0.282757   
C135     C      0.413470000000     0.677270000000     0.483080000000     0.283042   
C136     C      0.288700000000     0.709460000000     0.920610000000     0.28301    
C137     C      0.585750000000     0.319830000000     0.483240000000     0.282883   
C138     C      0.710550000000     0.287620000000     0.920710000000     0.282892   
C139     C      0.678340000000     0.412420000000     0.983380000000     0.282641   
C140     C      0.710520000000     0.287640000000     0.545630000000     0.282772   
C141     C      0.710560000000     0.709500000000     0.920930000000     0.282846   
C142     C      0.678340000000     0.584690000000     0.483440000000     0.282879   
C143     C      0.710500000000     0.709440000000     0.545850000000     0.282917   
C144     C      0.585740000000     0.677270000000     0.983350000000     0.282437   
C145     C      0.788660000000     0.209510000000     0.795290000000     0.282751   
C146     C      0.820880000000     0.084690000000     0.732780000000     0.283018   
C147     C      0.788720000000     0.209440000000     0.670370000000     0.282938   
C148     C      0.913480000000     0.177270000000     0.732720000000     0.28297    
C149     C      0.788680000000     0.787640000000     0.795680000000     0.283044   
C150     C      0.913470000000     0.819830000000     0.733230000000     0.283007   
C151     C      0.788680000000     0.787620000000     0.670760000000     0.282881   
C152     C      0.820880000000     0.912420000000     0.733000000000     0.283079   
C153     C      0.210560000000     0.787580000000     0.670950000000     0.282729   
C154     C      0.085740000000     0.819830000000     0.733430000000     0.283004   
C155     C      0.210500000000     0.787660000000     0.795870000000     0.282873   
C156     C      0.178330000000     0.912410000000     0.733540000000     0.283143   
C157     C      0.210530000000     0.209460000000     0.670550000000     0.282906   
C158     C      0.178340000000     0.084680000000     0.733320000000     0.282989   
C159     C      0.210540000000     0.209470000000     0.795480000000     0.282857   
C160     C      0.085750000000     0.177270000000     0.732930000000     0.283018   
C161     C      0.179920000000     0.977800000000     0.767620000000    -0.00671269 
C162     C      0.180190000000     0.956450000000     0.733510000000    -0.05271    
C163     C      0.181140000000     0.977630000000     0.699360000000    -0.00667066 
C164     C      0.181150000000     0.019290000000     0.699310000000    -0.00666902 
C165     C      0.180190000000     0.040640000000     0.733400000000    -0.0526826  
C166     C      0.179920000000     0.019460000000     0.767560000000    -0.00666941 
C167     C      0.978930000000     0.817680000000     0.699170000000    -0.00668372 
C168     C      0.957510000000     0.817970000000     0.733280000000    -0.0526876  
C169     C      0.978620000000     0.817590000000     0.767430000000    -0.00668459 
C170     C      0.020280000000     0.817590000000     0.767480000000    -0.00668399 
C171     C      0.041700000000     0.817970000000     0.733380000000    -0.052686   
C172     C      0.020590000000     0.817680000000     0.699220000000    -0.00668576 
C173     C      0.818790000000     0.019300000000     0.698730000000    -0.00671188 
C174     C      0.819030000000     0.040640000000     0.732830000000    -0.0526189  
C175     C      0.818570000000     0.019470000000     0.766990000000    -0.00673083 
C176     C      0.818570000000     0.977810000000     0.767040000000    -0.00665055 
C177     C      0.819020000000     0.956460000000     0.732940000000    -0.0527233  
C178     C      0.818790000000     0.977640000000     0.698780000000    -0.00664905 
C179     C      0.978630000000     0.179920000000     0.766900000000    -0.00668188 
C180     C      0.957520000000     0.179120000000     0.732750000000    -0.0526912  
C181     C      0.978940000000     0.179010000000     0.698650000000    -0.00666412 
C182     C      0.020600000000     0.179010000000     0.698700000000    -0.00666768 
C183     C      0.041710000000     0.179120000000     0.732850000000    -0.0526911  
C184     C      0.020290000000     0.179920000000     0.766950000000    -0.00668882 
C185     C      0.714870000000     0.764860000000     0.873780000000    -0.00668709 
C186     C      0.730540000000     0.729490000000     0.888900000000    -0.0524393  
C187     C      0.765500000000     0.713410000000     0.873120000000    -0.00666708 
C188     C      0.784380000000     0.732300000000     0.842850000000    -0.00659071 
C189     C      0.768700000000     0.767660000000     0.827720000000    -0.0525322  
C190     C      0.733760000000     0.783740000000     0.843510000000    -0.00652849 
C191     C      0.714410000000     0.764380000000     0.593550000000    -0.00664821 
C192     C      0.730490000000     0.729430000000     0.577810000000    -0.0524007  
C193     C      0.765860000000     0.713770000000     0.592890000000    -0.00665604 
C194     C      0.784760000000     0.732670000000     0.623080000000    -0.0065806  
C195     C      0.768680000000     0.767620000000     0.638820000000    -0.0524761  
C196     C      0.733310000000     0.783280000000     0.623740000000    -0.00656128 
C197     C      0.765530000000     0.283670000000     0.872940000000    -0.006606   
C198     C      0.730530000000     0.267640000000     0.888630000000    -0.0524566  
C199     C      0.714790000000     0.232350000000     0.873370000000    -0.00663488 
C200     C      0.733670000000     0.213470000000     0.843050000000    -0.00661878 
C201     C      0.768670000000     0.229500000000     0.827360000000    -0.0524056  
C202     C      0.784410000000     0.264790000000     0.842620000000    -0.0066254  
C203     C      0.733410000000     0.213710000000     0.623280000000    -0.00660603 
C204     C      0.768730000000     0.229430000000     0.638450000000    -0.0524671  
C205     C      0.784740000000     0.264440000000     0.622850000000    -0.00654149 
C206     C      0.765840000000     0.283350000000     0.592700000000    -0.00670207 
C207     C      0.730520000000     0.267640000000     0.577540000000    -0.0523448  
C208     C      0.714500000000     0.232620000000     0.593140000000    -0.00667201 
C209     C      0.680680000000     0.477700000000     0.949280000000    -0.00670124 
C210     C      0.680190000000     0.456460000000     0.983400000000    -0.0530101  
C211     C      0.680390000000     0.477740000000     0.517540000000    -0.00669332 
C212     C      0.680390000000     0.519410000000     0.517560000000    -0.00674659 
C213     C      0.680190000000     0.540640000000     0.483430000000    -0.0525685  
C214     C      0.680680000000     0.519360000000     0.949300000000    -0.00665138 
C215     C      0.284540000000     0.764650000000     0.873300000000    -0.0065938  
C216     C      0.268700000000     0.729460000000     0.888700000000    -0.0525008  
C217     C      0.233560000000     0.713560000000     0.873330000000    -0.00660205 
C218     C      0.214650000000     0.732470000000     0.843190000000    -0.00665518 
C219     C      0.230490000000     0.767670000000     0.827790000000    -0.0524038  
C220     C      0.265630000000     0.783570000000     0.843160000000    -0.00667986 
C221     C      0.265720000000     0.783450000000     0.623390000000    -0.00662632 
C222     C      0.230540000000     0.767600000000     0.638880000000    -0.0523982  
C223     C      0.214630000000     0.732470000000     0.623420000000    -0.00667795 
C224     C      0.233510000000     0.713600000000     0.593100000000    -0.00655763 
C225     C      0.268690000000     0.729450000000     0.577610000000    -0.0524659  
C226     C      0.284600000000     0.764570000000     0.593070000000    -0.00657671 
C227     C      0.478940000000     0.679670000000     0.949060000000    -0.00670278 
C228     C      0.457510000000     0.679120000000     0.483160000000    -0.0526742  
C229     C      0.478600000000     0.679260000000     0.517320000000    -0.00668179 
C230     C      0.520270000000     0.679260000000     0.517390000000    -0.00671578 
C231     C      0.541700000000     0.679120000000     0.983290000000    -0.0529597  
C232     C      0.520600000000     0.679670000000     0.949130000000    -0.00666091 
C233     C      0.284630000000     0.232530000000     0.872890000000    -0.00667101 
C234     C      0.268730000000     0.267670000000     0.888420000000    -0.0524513  
C235     C      0.233540000000     0.283510000000     0.873150000000    -0.00663408 
C236     C      0.214640000000     0.264610000000     0.842960000000    -0.00661477 
C237     C      0.230540000000     0.229470000000     0.827420000000    -0.0524589  
C238     C      0.265730000000     0.213630000000     0.842700000000    -0.00660707 
C239     C      0.284520000000     0.232410000000     0.592650000000    -0.00662525 
C240     C      0.268670000000     0.267600000000     0.577330000000    -0.0524266  
C241     C      0.233550000000     0.283510000000     0.592920000000    -0.00662388 
C242     C      0.214660000000     0.264620000000     0.623190000000    -0.00659403 
C243     C      0.230510000000     0.229440000000     0.638510000000    -0.0524585  
C244     C      0.265640000000     0.213530000000     0.622930000000    -0.00659901 
C245     C      0.478610000000     0.317930000000     0.517220000000    -0.00663677 
C246     C      0.457520000000     0.317970000000     0.983060000000    -0.0530285  
C247     C      0.478950000000     0.317330000000     0.948970000000    -0.00663925 
C248     C      0.520610000000     0.317340000000     0.949030000000    -0.00669611 
C249     C      0.541700000000     0.317970000000     0.483190000000    -0.0525683  
C250     C      0.520280000000     0.317930000000     0.517290000000    -0.00675489 
C251     C      0.318040000000     0.519400000000     0.016840000000    -0.00632821 
C252     C      0.319030000000     0.540640000000     0.982730000000    -0.0529915  
C253     C      0.319330000000     0.519350000000     0.948590000000    -0.00668039 
C254     C      0.319330000000     0.477690000000     0.448570000000    -0.00672366 
C255     C      0.319030000000     0.456450000000     0.482700000000    -0.0527092  
C256     C      0.318040000000     0.477740000000     0.516820000000    -0.00662934 
Cd1      Cd     0.327670000000     0.326610000000     0.982810000000     0.50908    
Cd2      Cd     0.327670000000     0.670480000000     0.982940000000     0.509067   
Cd3      Cd     0.671550000000     0.326620000000     0.483300000000     0.509474   
Cd4      Cd     0.671540000000     0.670490000000     0.483430000000     0.509478   
Cd5      Cd     0.827670000000     0.170490000000     0.232730000000     0.509498   
Cd6      Cd     0.827660000000     0.826620000000     0.233150000000     0.509508   
Cd7      Cd     0.171540000000     0.826610000000     0.233510000000     0.509486   
Cd8      Cd     0.171550000000     0.170480000000     0.233090000000     0.509477   
Cd9      Cd     0.327670000000     0.326610000000     0.482810000000     0.509479   
Cd10     Cd     0.327670000000     0.670480000000     0.482940000000     0.509477   
Cd11     Cd     0.671550000000     0.326620000000     0.983290000000     0.509052   
Cd12     Cd     0.671540000000     0.670490000000     0.983430000000     0.509083   
Cd13     Cd     0.827670000000     0.170490000000     0.732730000000     0.509489   
Cd14     Cd     0.827670000000     0.826620000000     0.733140000000     0.509491   
Cd15     Cd     0.171540000000     0.826610000000     0.733510000000     0.509492   
Cd16     Cd     0.171550000000     0.170480000000     0.733090000000     0.509468   
H1       H      0.179230000000     0.962340000000     0.294400000000     0.0575757  
H2       H      0.181410000000     0.962040000000     0.172610000000     0.0576301  
H3       H      0.181420000000     0.034750000000     0.172520000000     0.0576083  
H4       H      0.179230000000     0.035050000000     0.294310000000     0.0575352  
H5       H      0.963530000000     0.817920000000     0.172380000000     0.0575998  
H6       H      0.962970000000     0.817760000000     0.294180000000     0.0575628  
H7       H      0.035680000000     0.817760000000     0.294270000000     0.0575665  
H8       H      0.036240000000     0.817920000000     0.172470000000     0.0575963  
H9       H      0.819090000000     0.034760000000     0.171940000000     0.0575885  
H10      H      0.818700000000     0.035060000000     0.293740000000     0.0575866  
H11      H      0.818690000000     0.962350000000     0.293830000000     0.0575818  
H12      H      0.819090000000     0.962040000000     0.172030000000     0.0575869  
H13      H      0.962980000000     0.180070000000     0.293650000000     0.0575843  
H14      H      0.963530000000     0.178440000000     0.171860000000     0.0575827  
H15      H      0.036250000000     0.178440000000     0.171950000000     0.0575784  
H16      H      0.035690000000     0.180070000000     0.293740000000     0.0575821  
H17      H      0.687980000000     0.777990000000     0.385320000000     0.0577287  
H18      H      0.778310000000     0.686200000000     0.384150000000     0.0577307  
H19      H      0.811270000000     0.719160000000     0.331300000000     0.0577068  
H20      H      0.720940000000     0.810960000000     0.332480000000     0.0577079  
H21      H      0.687190000000     0.777190000000     0.082560000000     0.0577721  
H22      H      0.778990000000     0.686870000000     0.081380000000     0.0577553  
H23      H      0.811980000000     0.719860000000     0.134070000000     0.0577422  
H24      H      0.720170000000     0.810180000000     0.135250000000     0.0577137  
H25      H      0.778400000000     0.310840000000     0.384070000000     0.0577182  
H26      H      0.687860000000     0.219250000000     0.384830000000     0.057715   
H27      H      0.720800000000     0.186300000000     0.331920000000     0.0577213  
H28      H      0.811350000000     0.277890000000     0.331150000000     0.057718   
H29      H      0.720320000000     0.186770000000     0.134680000000     0.0577211  
H30      H      0.811920000000     0.277300000000     0.133910000000     0.0577191  
H31      H      0.778920000000     0.310300000000     0.081300000000     0.0577655  
H32      H      0.687330000000     0.219770000000     0.082070000000     0.0577818  
H33      H      0.680580000000     0.462160000000     0.422510000000     0.0575922  
H34      H      0.680070000000     0.462240000000     0.044300000000     0.0575404  
H35      H      0.680060000000     0.534950000000     0.044330000000     0.0575427  
H36      H      0.680580000000     0.534860000000     0.422530000000     0.0575811  
H37      H      0.311570000000     0.777650000000     0.384520000000     0.0577289  
H38      H      0.220610000000     0.686480000000     0.384580000000     0.0577165  
H39      H      0.187610000000     0.719480000000     0.331970000000     0.0577147  
H40      H      0.278570000000     0.810650000000     0.331910000000     0.057702   
H41      H      0.278730000000     0.810480000000     0.134670000000     0.0577349  
H42      H      0.187560000000     0.719520000000     0.134730000000     0.057737   
H43      H      0.220500000000     0.686570000000     0.081820000000     0.0577689  
H44      H      0.311670000000     0.777530000000     0.081760000000     0.0577636  
H45      H      0.463550000000     0.679620000000     0.422270000000     0.0575877  
H46      H      0.462950000000     0.678890000000     0.044060000000     0.0575448  
H47      H      0.535660000000     0.678890000000     0.044180000000     0.0575591  
H48      H      0.536260000000     0.679620000000     0.422380000000     0.0575627  
H49      H      0.311710000000     0.219590000000     0.384030000000     0.0577313  
H50      H      0.220540000000     0.310540000000     0.384500000000     0.0577043  
H51      H      0.187550000000     0.277550000000     0.331810000000     0.0577338  
H52      H      0.278730000000     0.186600000000     0.331350000000     0.0577135  
H53      H      0.311550000000     0.219410000000     0.081270000000     0.0577646  
H54      H      0.220590000000     0.310580000000     0.081740000000     0.0577804  
H55      H      0.187630000000     0.277620000000     0.134580000000     0.0577265  
H56      H      0.278590000000     0.186450000000     0.134110000000     0.0577523  
H57      H      0.462960000000     0.318370000000     0.043970000000     0.0575201  
H58      H      0.463560000000     0.317310000000     0.422170000000     0.0575927  
H59      H      0.536270000000     0.317310000000     0.422280000000     0.0575766  
H60      H      0.535670000000     0.318370000000     0.044080000000     0.0575594  
H61      H      0.317740000000     0.534940000000     0.543620000000     0.0575888  
H62      H      0.320050000000     0.534860000000     0.421830000000     0.0575467  
H63      H      0.320050000000     0.462150000000     0.921800000000     0.0575232  
H64      H      0.317740000000     0.462230000000     0.043590000000     0.0575486  
H65      H      0.179230000000     0.962340000000     0.794400000000     0.0575339  
H66      H      0.181410000000     0.962040000000     0.672610000000     0.057585   
H67      H      0.181420000000     0.034750000000     0.672520000000     0.0575875  
H68      H      0.179230000000     0.035050000000     0.794310000000     0.0575177  
H69      H      0.963530000000     0.817920000000     0.672380000000     0.0575716  
H70      H      0.962970000000     0.817760000000     0.794180000000     0.057538   
H71      H      0.035680000000     0.817760000000     0.794270000000     0.057542   
H72      H      0.036240000000     0.817920000000     0.672470000000     0.0575682  
H73      H      0.819090000000     0.034760000000     0.671940000000     0.0575661  
H74      H      0.818700000000     0.035060000000     0.793740000000     0.0575652  
H75      H      0.818690000000     0.962350000000     0.793830000000     0.0575483  
H76      H      0.819090000000     0.962040000000     0.672030000000     0.0575501  
H77      H      0.962980000000     0.180070000000     0.793650000000     0.0575538  
H78      H      0.963530000000     0.178440000000     0.671860000000     0.0575503  
H79      H      0.036250000000     0.178440000000     0.671950000000     0.0575522  
H80      H      0.035690000000     0.180070000000     0.793740000000     0.0575589  
H81      H      0.687980000000     0.777990000000     0.885320000000     0.0576962  
H82      H      0.778310000000     0.686200000000     0.884150000000     0.057706   
H83      H      0.811260000000     0.719160000000     0.831300000000     0.0576869  
H84      H      0.720940000000     0.810960000000     0.832480000000     0.0576834  
H85      H      0.687190000000     0.777190000000     0.582560000000     0.0577293  
H86      H      0.778990000000     0.686880000000     0.581380000000     0.0577228  
H87      H      0.811980000000     0.719860000000     0.634070000000     0.0577147  
H88      H      0.720170000000     0.810180000000     0.635250000000     0.0576904  
H89      H      0.778400000000     0.310840000000     0.884070000000     0.057684   
H90      H      0.687860000000     0.219250000000     0.884830000000     0.057687   
H91      H      0.720800000000     0.186300000000     0.831920000000     0.057698   
H92      H      0.811350000000     0.277890000000     0.831150000000     0.0576945  
H93      H      0.720330000000     0.186770000000     0.634680000000     0.0577104  
H94      H      0.811920000000     0.277300000000     0.633910000000     0.0576954  
H95      H      0.778920000000     0.310290000000     0.581300000000     0.0577337  
H96      H      0.687330000000     0.219770000000     0.582070000000     0.05774    
H97      H      0.680580000000     0.462160000000     0.922510000000     0.0575683  
H98      H      0.680070000000     0.462240000000     0.544300000000     0.0575604  
H99      H      0.680070000000     0.534950000000     0.544330000000     0.0575761  
H100     H      0.680580000000     0.534870000000     0.922530000000     0.0575491  
H101     H      0.311570000000     0.777650000000     0.884520000000     0.05768    
H102     H      0.220610000000     0.686480000000     0.884580000000     0.0576719  
H103     H      0.187610000000     0.719480000000     0.831970000000     0.0577128  
H104     H      0.278570000000     0.810650000000     0.831910000000     0.0577104  
H105     H      0.278730000000     0.810480000000     0.634670000000     0.0577233  
H106     H      0.187560000000     0.719520000000     0.634730000000     0.0577309  
H107     H      0.220500000000     0.686570000000     0.581820000000     0.0577094  
H108     H      0.311680000000     0.777530000000     0.581760000000     0.0576967  
H109     H      0.463550000000     0.679620000000     0.922270000000     0.057565   
H110     H      0.462950000000     0.678890000000     0.544060000000     0.0575672  
H111     H      0.535660000000     0.678890000000     0.544180000000     0.0575805  
H112     H      0.536260000000     0.679620000000     0.922380000000     0.0575408  
H113     H      0.311710000000     0.219590000000     0.884030000000     0.0577038  
H114     H      0.220540000000     0.310540000000     0.884500000000     0.057675   
H115     H      0.187550000000     0.277550000000     0.831810000000     0.0577071  
H116     H      0.278730000000     0.186600000000     0.831350000000     0.0576872  
H117     H      0.311550000000     0.219410000000     0.581270000000     0.0577164  
H118     H      0.220590000000     0.310580000000     0.581740000000     0.0577342  
H119     H      0.187630000000     0.277620000000     0.634580000000     0.0577008  
H120     H      0.278590000000     0.186450000000     0.634110000000     0.057726   
H121     H      0.462950000000     0.318370000000     0.543970000000     0.0575442  
H122     H      0.463560000000     0.317310000000     0.922170000000     0.0575468  
H123     H      0.536270000000     0.317310000000     0.922280000000     0.0575568  
H124     H      0.535670000000     0.318370000000     0.544080000000     0.0575863  
H125     H      0.317740000000     0.534940000000     0.043620000000     0.0575683  
H126     H      0.320050000000     0.534860000000     0.921830000000     0.0575293  
H127     H      0.320050000000     0.462150000000     0.421810000000     0.0575653  
H128     H      0.317740000000     0.462230000000     0.543590000000     0.0575743  
O1       O      0.320310000000     0.273950000000     0.030730000000    -0.229728   
O2       O      0.275070000000     0.319290000000     0.434930000000    -0.229983   
O3       O      0.393460000000     0.321470000000     0.013210000000    -0.229581   
O4       O      0.322780000000     0.392510000000     0.952460000000    -0.23005    
O5       O      0.321670000000     0.392570000000     0.513000000000    -0.229853   
O6       O      0.393750000000     0.320860000000     0.452660000000    -0.229835   
O7       O      0.275070000000     0.319290000000     0.030960000000    -0.229581   
O8       O      0.320410000000     0.274060000000     0.434700000000    -0.229848   
O9       O      0.320360000000     0.723070000000     0.031020000000    -0.229577   
O10      O      0.320350000000     0.723090000000     0.435000000000    -0.22989    
O11      O      0.321660000000     0.604560000000     0.013080000000    -0.229417   
O12      O      0.393460000000     0.675700000000     0.013320000000    -0.229564   
O13      O      0.393740000000     0.676160000000     0.452770000000    -0.229883   
O14      O      0.322770000000     0.604540000000     0.452530000000    -0.229973   
O15      O      0.275030000000     0.677820000000     0.031070000000    -0.229535   
O16      O      0.275100000000     0.677770000000     0.435040000000    -0.229983   
O17      O      0.679020000000     0.273870000000     0.435390000000    -0.229867   
O18      O      0.724270000000     0.319170000000     0.031020000000    -0.229781   
O19      O      0.605760000000     0.320960000000     0.452980000000    -0.229906   
O20      O      0.677120000000     0.392540000000     0.453090000000    -0.22996    
O21      O      0.676880000000     0.392560000000     0.013640000000    -0.22955    
O22      O      0.605480000000     0.321370000000     0.013540000000    -0.229417   
O23      O      0.724040000000     0.319420000000     0.435000000000    -0.22975    
O24      O      0.678710000000     0.274160000000     0.031410000000    -0.22963    
O25      O      0.677120000000     0.604530000000     0.453160000000    -0.229817   
O26      O      0.605470000000     0.675810000000     0.013650000000    -0.229387   
O27      O      0.723990000000     0.677650000000     0.435110000000    -0.229722   
O28      O      0.724300000000     0.677960000000     0.031130000000    -0.22974    
O29      O      0.678650000000     0.722880000000     0.031700000000    -0.229624   
O30      O      0.679060000000     0.723290000000     0.435680000000    -0.229834   
O31      O      0.676870000000     0.604590000000     0.013720000000    -0.229523   
O32      O      0.605760000000     0.676060000000     0.453090000000    -0.229893   
O33      O      0.822160000000     0.104620000000     0.263040000000    -0.229908   
O34      O      0.893730000000     0.175580000000     0.202440000000    -0.22995    
O35      O      0.820210000000     0.223250000000     0.280620000000    -0.229736   
O36      O      0.774980000000     0.177890000000     0.184970000000    -0.229835   
O37      O      0.820510000000     0.222930000000     0.184600000000    -0.229847   
O38      O      0.775170000000     0.177710000000     0.280990000000    -0.229769   
O39      O      0.822280000000     0.104500000000     0.202490000000    -0.229943   
O40      O      0.893480000000     0.176280000000     0.262990000000    -0.229965   
O41      O      0.893730000000     0.821160000000     0.202930000000    -0.229804   
O42      O      0.822340000000     0.892460000000     0.202760000000    -0.230056   
O43      O      0.820170000000     0.773840000000     0.280920000000    -0.229867   
O44      O      0.820540000000     0.774200000000     0.184900000000    -0.229737   
O45      O      0.774880000000     0.819110000000     0.185480000000    -0.229905   
O46      O      0.775250000000     0.819490000000     0.281500000000    -0.229746   
O47      O      0.893460000000     0.821170000000     0.263480000000    -0.229994   
O48      O      0.822090000000     0.892630000000     0.263310000000    -0.22991    
O49      O      0.105740000000     0.821250000000     0.203180000000    -0.229972   
O50      O      0.176500000000     0.892600000000     0.263820000000    -0.229928   
O51      O      0.178850000000     0.774000000000     0.185440000000    -0.229749   
O52      O      0.178860000000     0.774020000000     0.281470000000    -0.229934   
O53      O      0.224090000000     0.819350000000     0.281440000000    -0.229999   
O54      O      0.224200000000     0.819230000000     0.185420000000    -0.229683   
O55      O      0.105490000000     0.821080000000     0.263730000000    -0.229862   
O56      O      0.177490000000     0.892480000000     0.203260000000    -0.229775   
O57      O      0.177560000000     0.104470000000     0.203000000000    -0.229797   
O58      O      0.105490000000     0.176370000000     0.263240000000    -0.229823   
O59      O      0.224120000000     0.177760000000     0.184900000000    -0.22975    
O60      O      0.178830000000     0.223050000000     0.281170000000    -0.229722   
O61      O      0.224190000000     0.177830000000     0.280930000000    -0.22993    
O62      O      0.178900000000     0.223110000000     0.185150000000    -0.229978   
O63      O      0.176440000000     0.104630000000     0.263550000000    -0.230018   
O64      O      0.105750000000     0.175490000000     0.202690000000    -0.230017   
O65      O      0.320310000000     0.273950000000     0.530730000000    -0.229916   
O66      O      0.275070000000     0.319290000000     0.934940000000    -0.22999    
O67      O      0.393460000000     0.321480000000     0.513210000000    -0.230087   
O68      O      0.322780000000     0.392510000000     0.452460000000    -0.230092   
O69      O      0.321670000000     0.392570000000     0.013000000000    -0.229417   
O70      O      0.393750000000     0.320850000000     0.952660000000    -0.229725   
O71      O      0.275070000000     0.319290000000     0.530960000000    -0.229761   
O72      O      0.320410000000     0.274060000000     0.934710000000    -0.229847   
O73      O      0.320360000000     0.723070000000     0.531020000000    -0.229768   
O74      O      0.320350000000     0.723090000000     0.935000000000    -0.229963   
O75      O      0.321660000000     0.604560000000     0.513080000000    -0.22986    
O76      O      0.393460000000     0.675690000000     0.513320000000    -0.230006   
O77      O      0.393740000000     0.676160000000     0.952770000000    -0.229832   
O78      O      0.322770000000     0.604540000000     0.952530000000    -0.229919   
O79      O      0.275030000000     0.677820000000     0.531070000000    -0.229648   
O80      O      0.275100000000     0.677770000000     0.935040000000    -0.230057   
O81      O      0.679020000000     0.273870000000     0.935380000000    -0.229956   
O82      O      0.724270000000     0.319180000000     0.531020000000    -0.229882   
O83      O      0.605760000000     0.320960000000     0.952980000000    -0.229871   
O84      O      0.677120000000     0.392540000000     0.953090000000    -0.229869   
O85      O      0.676880000000     0.392550000000     0.513640000000    -0.230027   
O86      O      0.605480000000     0.321370000000     0.513540000000    -0.229861   
O87      O      0.724040000000     0.319430000000     0.935000000000    -0.229771   
O88      O      0.678710000000     0.274160000000     0.531410000000    -0.229785   
O89      O      0.677110000000     0.604530000000     0.953170000000    -0.22986    
O90      O      0.605470000000     0.675810000000     0.513650000000    -0.229835   
O91      O      0.723990000000     0.677650000000     0.935110000000    -0.229796   
O92      O      0.724300000000     0.677960000000     0.531130000000    -0.229982   
O93      O      0.678650000000     0.722880000000     0.531700000000    -0.229794   
O94      O      0.679060000000     0.723290000000     0.935680000000    -0.229906   
O95      O      0.676870000000     0.604590000000     0.513720000000    -0.229937   
O96      O      0.605760000000     0.676060000000     0.953090000000    -0.229836   
O97      O      0.822160000000     0.104620000000     0.763040000000    -0.229931   
O98      O      0.893730000000     0.175580000000     0.702440000000    -0.229901   
O99      O      0.820210000000     0.223250000000     0.780620000000    -0.229764   
O100     O      0.774980000000     0.177890000000     0.684970000000    -0.229906   
O101     O      0.820510000000     0.222930000000     0.684600000000    -0.229915   
O102     O      0.775170000000     0.177710000000     0.780990000000    -0.229724   
O103     O      0.822280000000     0.104500000000     0.702490000000    -0.229963   
O104     O      0.893480000000     0.176280000000     0.762990000000    -0.229918   
O105     O      0.893730000000     0.821160000000     0.702930000000    -0.229854   
O106     O      0.822340000000     0.892470000000     0.702760000000    -0.230066   
O107     O      0.820160000000     0.773840000000     0.780920000000    -0.229966   
O108     O      0.820540000000     0.774200000000     0.684900000000    -0.229766   
O109     O      0.774880000000     0.819110000000     0.685480000000    -0.229923   
O110     O      0.775250000000     0.819490000000     0.781510000000    -0.229798   
O111     O      0.893460000000     0.821170000000     0.763480000000    -0.230021   
O112     O      0.822090000000     0.892630000000     0.763310000000    -0.229874   
O113     O      0.105740000000     0.821250000000     0.703180000000    -0.229993   
O114     O      0.176500000000     0.892600000000     0.763810000000    -0.230072   
O115     O      0.178850000000     0.774000000000     0.685450000000    -0.229726   
O116     O      0.178860000000     0.774010000000     0.781470000000    -0.22987    
O117     O      0.224090000000     0.819360000000     0.781440000000    -0.229913   
O118     O      0.224200000000     0.819230000000     0.685420000000    -0.229674   
O119     O      0.105490000000     0.821080000000     0.763730000000    -0.229883   
O120     O      0.177490000000     0.892480000000     0.703270000000    -0.229921   
O121     O      0.177560000000     0.104470000000     0.703000000000    -0.229819   
O122     O      0.105490000000     0.176370000000     0.763240000000    -0.229843   
O123     O      0.224120000000     0.177760000000     0.684900000000    -0.229711   
O124     O      0.178830000000     0.223050000000     0.781170000000    -0.229737   
O125     O      0.224190000000     0.177830000000     0.780930000000    -0.229945   
O126     O      0.178900000000     0.223110000000     0.685150000000    -0.229938   
O127     O      0.176440000000     0.104630000000     0.763550000000    -0.230036   
O128     O      0.105750000000     0.175490000000     0.702690000000    -0.23004    


