data_structure

_audit_creation_method RASPA-1.0
_audit_creation_date 2023-5-22
_audit_author_name 'Poobodin Mano'

_cell_length_a    43.7148
_cell_length_b    43.7147
_cell_length_c    32.941
_cell_angle_alpha 90.0021
_cell_angle_beta  90.0021
_cell_angle_gamma 120
_cell_volume      54515.9

_symmetry_cell_setting          triclinic
_symmetry_space_group_name_Hall 'P 1'
_symmetry_space_group_name_H-M  'P 1'
_symmetry_Int_Tables_number     1

_symmetry_equiv_pos_as_xyz 'x,y,z'

loop_
_atom_site_label
_atom_site_type_symbol
_atom_site_fract_x
_atom_site_fract_y
_atom_site_fract_z
_atom_site_charge
C1       C      0.301900000000     0.251140000000     0.487410000000     0.278291   
C2       C      0.424800000000     0.251170000000     0.504100000000     0.27848    
C3       C      0.332620000000     0.202630000000     0.577260000000     0.278881   
C4       C      0.345570000000     0.202550000000     0.414350000000     0.278842   
C5       C      0.270350000000     0.096480000000     0.154070000000     0.278356   
C6       C      0.270320000000     0.219350000000     0.170760000000     0.278388   
C7       C      0.318860000000     0.175710000000     0.243920000000     0.278794   
C8       C      0.318940000000     0.188730000000     0.081010000000     0.278958   
C9       C      0.196030000000     0.293630000000     0.487320000000     0.278514   
C10      C      0.073160000000     0.293650000000     0.504010000000     0.278528   
C11      C      0.165420000000     0.342250000000     0.577070000000     0.278818   
C12      C      0.152390000000     0.342170000000     0.414160000000     0.278855   
C13      C      0.227840000000     0.325220000000     0.170680000000     0.278337   
C14      C      0.227860000000     0.448120000000     0.153990000000     0.278314   
C15      C      0.179320000000     0.355940000000     0.080830000000     0.278834   
C16      C      0.179240000000     0.368880000000     0.243740000000     0.278884   
C17      C      0.196280000000     0.448320000000     0.837350000000     0.278433   
C18      C      0.073380000000     0.325460000000     0.820650000000     0.278504   
C19      C      0.165560000000     0.369100000000     0.747500000000     0.278934   
C20      C      0.152620000000     0.356070000000     0.910410000000     0.278758   
C21      C      0.302150000000     0.096690000000     0.837430000000     0.278316   
C22      C      0.425020000000     0.219580000000     0.820740000000     0.278454   
C23      C      0.332760000000     0.175920000000     0.747680000000     0.27897    
C24      C      0.345790000000     0.188870000000     0.910590000000     0.278819   
C25      C      0.259390000000     0.996920000000     0.839970000000    -0.00729284 
C26      C      0.223200000000     0.486300000000     0.839550000000    -0.0505857  
C27      C      0.213300000000     0.012270000000     0.839940000000    -0.00729877 
C28      C      0.239040000000     0.048090000000     0.840050000000    -0.00735722 
C29      C      0.275230000000     0.058710000000     0.839600000000    -0.0505371  
C30      C      0.285130000000     0.032740000000     0.839910000000    -0.00729605 
C31      C      0.024780000000     0.262340000000     0.818030000000    -0.00727243 
C32      C      0.035400000000     0.298530000000     0.818490000000    -0.0506231  
C33      C      0.009430000000     0.308430000000     0.818180000000    -0.00722317 
C34      C      0.473610000000     0.282700000000     0.818110000000    -0.00735142 
C35      C      0.462990000000     0.246510000000     0.818540000000    -0.0505919  
C36      C      0.988970000000     0.236610000000     0.818140000000    -0.0072968  
C37      C      0.138310000000     0.348550000000     0.023910000000    -0.00686722 
C38      C      0.169310000000     0.349820000000     0.037540000000    -0.0510577  
C39      C      0.192700000000     0.348840000000     0.008890000000    -0.00648261 
C40      C      0.186210000000     0.348610000000     0.967310000000    -0.00678969 
C41      C      0.156490000000     0.349900000000     0.953680000000    -0.0511279  
C42      C      0.132090000000     0.348850000000     0.982330000000    -0.00637817 
C43      C      0.172880000000     0.383310000000     0.633980000000    -0.00687373 
C44      C      0.171600000000     0.352300000000     0.620350000000    -0.0510469  
C45      C      0.172650000000     0.328950000000     0.649000000000    -0.0064192  
C46      C      0.172950000000     0.335470000000     0.690570000000    -0.0068582  
C47      C      0.171670000000     0.365190000000     0.704200000000    -0.0510511  
C48      C      0.172650000000     0.389560000000     0.675550000000    -0.00641426 
C49      C      0.186010000000     0.383190000000     0.357250000000    -0.00684391 
C50      C      0.156290000000     0.352180000000     0.370870000000    -0.0510789  
C51      C      0.131920000000     0.328790000000     0.342210000000    -0.00642725 
C52      C      0.138180000000     0.335280000000     0.300640000000    -0.00686487 
C53      C      0.169180000000     0.365010000000     0.287020000000    -0.0510287  
C54      C      0.192540000000     0.389410000000     0.315670000000    -0.0064588  
C55      C      0.284870000000     0.047890000000     0.151450000000    -0.00725037 
C56      C      0.259300000000     0.058510000000     0.151870000000    -0.0506417  
C57      C      0.223430000000     0.032530000000     0.151470000000    -0.0072073  
C58      C      0.213350000000     0.996720000000     0.151360000000    -0.00735504 
C59      C      0.238920000000     0.486100000000     0.151830000000    -0.0505602  
C60      C      0.274790000000     0.012070000000     0.151510000000    -0.00737281 
C61      C      0.284840000000     0.282460000000     0.173390000000    -0.0073355  
C62      C      0.259270000000     0.246270000000     0.172930000000    -0.0506058  
C63      C      0.223400000000     0.236370000000     0.173240000000    -0.00729068 
C64      C      0.213320000000     0.262110000000     0.173300000000    -0.00728495 
C65      C      0.238890000000     0.298300000000     0.172880000000    -0.0506254  
C66      C      0.274760000000     0.308200000000     0.173280000000    -0.00725397 
C67      C      0.360010000000     0.196200000000     0.024110000000    -0.00686482 
C68      C      0.329000000000     0.194910000000     0.037730000000    -0.0510831  
C69      C      0.305650000000     0.195960000000     0.009080000000    -0.00639688 
C70      C      0.312170000000     0.196260000000     0.967510000000    -0.00682785 
C71      C      0.341890000000     0.194980000000     0.953880000000    -0.051089   
C72      C      0.366260000000     0.195960000000     0.982540000000    -0.00642544 
C73      C      0.325530000000     0.216000000000     0.649200000000    -0.00644694 
C74      C      0.326510000000     0.192610000000     0.620550000000    -0.0510794  
C75      C      0.325230000000     0.161610000000     0.634180000000    -0.0068267  
C76      C      0.325530000000     0.155390000000     0.675750000000    -0.0064016  
C77      C      0.326580000000     0.179790000000     0.704400000000    -0.0511308  
C78      C      0.325300000000     0.209510000000     0.690780000000    -0.00678793 
C79      C      0.009210000000     0.246730000000     0.506600000000    -0.00720833 
C80      C      0.035190000000     0.282600000000     0.506210000000    -0.0506786  
C81      C      0.024570000000     0.308170000000     0.506640000000    -0.00726063 
C82      C      0.488750000000     0.298090000000     0.506580000000    -0.00729136 
C83      C      0.462780000000     0.262220000000     0.506270000000    -0.0505716  
C84      C      0.473400000000     0.236650000000     0.506720000000    -0.00736422 
C85      C      0.238790000000     0.236620000000     0.484780000000    -0.00731749 
C86      C      0.274980000000     0.262190000000     0.485210000000    -0.0505899  
C87      C      0.284880000000     0.298060000000     0.484820000000    -0.0072673  
C88      C      0.259140000000     0.308140000000     0.484700000000    -0.00729354 
C89      C      0.222950000000     0.282570000000     0.485160000000    -0.0506257  
C90      C      0.213050000000     0.246700000000     0.484840000000    -0.00724387 
C91      C      0.311970000000     0.161490000000     0.357440000000    -0.00684908 
C92      C      0.341690000000     0.192500000000     0.371070000000    -0.0510749  
C93      C      0.366090000000     0.215850000000     0.342420000000    -0.00639879 
C94      C      0.359880000000     0.209330000000     0.300840000000    -0.00689107 
C95      C      0.328880000000     0.179610000000     0.287210000000    -0.0510375  
C96      C      0.305490000000     0.155240000000     0.315860000000    -0.0064349  
C97      C      0.301900000000     0.751140000000     0.487410000000     0.278291   
C98      C      0.424800000000     0.751170000000     0.504100000000     0.278296   
C99      C      0.332620000000     0.702630000000     0.577260000000     0.278702   
C100     C      0.345570000000     0.702550000000     0.414350000000     0.278848   
C101     C      0.270350000000     0.596480000000     0.154070000000     0.278148   
C102     C      0.270320000000     0.719350000000     0.170760000000     0.278409   
C103     C      0.318860000000     0.675710000000     0.243920000000     0.278791   
C104     C      0.318940000000     0.688730000000     0.081010000000     0.278959   
C105     C      0.196030000000     0.793630000000     0.487320000000     0.278513   
C106     C      0.073160000000     0.793650000000     0.504010000000     0.278488   
C107     C      0.165420000000     0.842250000000     0.577070000000     0.278819   
C108     C      0.152390000000     0.842170000000     0.414160000000     0.278866   
C109     C      0.227840000000     0.825230000000     0.170680000000     0.27846    
C110     C      0.227860000000     0.948120000000     0.153990000000     0.278292   
C111     C      0.179320000000     0.855940000000     0.080830000000     0.278808   
C112     C      0.179240000000     0.868880000000     0.243740000000     0.278776   
C113     C      0.196280000000     0.948320000000     0.837350000000     0.278428   
C114     C      0.073380000000     0.825460000000     0.820650000000     0.278504   
C115     C      0.165560000000     0.869090000000     0.747500000000     0.278768   
C116     C      0.152620000000     0.856070000000     0.910410000000     0.278757   
C117     C      0.302150000000     0.596690000000     0.837430000000     0.278317   
C118     C      0.425020000000     0.719580000000     0.820740000000     0.27847    
C119     C      0.332760000000     0.675920000000     0.747680000000     0.278952   
C120     C      0.345790000000     0.688870000000     0.910590000000     0.278819   
C121     C      0.259390000000     0.496920000000     0.839970000000    -0.00730817 
C122     C      0.223200000000     0.986300000000     0.839550000000    -0.0505685  
C123     C      0.213300000000     0.512270000000     0.839940000000    -0.00728037 
C124     C      0.239040000000     0.548090000000     0.840050000000    -0.00735991 
C125     C      0.275230000000     0.558710000000     0.839600000000    -0.0505387  
C126     C      0.285130000000     0.532740000000     0.839900000000    -0.00727935 
C127     C      0.024780000000     0.762340000000     0.818030000000    -0.00728479 
C128     C      0.035400000000     0.798530000000     0.818490000000    -0.0506205  
C129     C      0.009430000000     0.808430000000     0.818180000000    -0.00722104 
C130     C      0.473610000000     0.782700000000     0.818110000000    -0.00735767 
C131     C      0.462990000000     0.746500000000     0.818540000000    -0.0506164  
C132     C      0.988970000000     0.736610000000     0.818140000000    -0.00726742 
C133     C      0.138300000000     0.848540000000     0.023910000000    -0.00689599 
C134     C      0.169310000000     0.849820000000     0.037540000000    -0.0510342  
C135     C      0.192700000000     0.848840000000     0.008890000000    -0.0064914  
C136     C      0.186210000000     0.848610000000     0.967310000000    -0.00678505 
C137     C      0.156490000000     0.849900000000     0.953680000000    -0.0511267  
C138     C      0.132090000000     0.848850000000     0.982330000000    -0.00638173 
C139     C      0.172880000000     0.883310000000     0.633980000000    -0.00686744 
C140     C      0.171600000000     0.852300000000     0.620350000000    -0.05105    
C141     C      0.172650000000     0.828950000000     0.649000000000    -0.00641723 
C142     C      0.172950000000     0.835470000000     0.690570000000    -0.00686396 
C143     C      0.171670000000     0.865190000000     0.704200000000    -0.0510113  
C144     C      0.172650000000     0.889560000000     0.675550000000    -0.006427   
C145     C      0.186020000000     0.883190000000     0.357250000000    -0.00684969 
C146     C      0.156290000000     0.852180000000     0.370870000000    -0.0511092  
C147     C      0.131930000000     0.828800000000     0.342210000000    -0.00634481 
C148     C      0.138180000000     0.835280000000     0.300640000000    -0.0069153  
C149     C      0.169180000000     0.865000000000     0.287020000000    -0.0509829  
C150     C      0.192540000000     0.889410000000     0.315670000000    -0.00647805 
C151     C      0.284870000000     0.547890000000     0.151450000000    -0.00733487 
C152     C      0.259300000000     0.558500000000     0.151870000000    -0.050489   
C153     C      0.223430000000     0.532530000000     0.151480000000    -0.00727939 
C154     C      0.213350000000     0.496720000000     0.151370000000    -0.007319   
C155     C      0.238920000000     0.986100000000     0.151820000000    -0.0504946  
C156     C      0.274790000000     0.512070000000     0.151520000000    -0.00728049 
C157     C      0.284840000000     0.782460000000     0.173390000000    -0.00731292 
C158     C      0.259270000000     0.746270000000     0.172930000000    -0.0506376  
C159     C      0.223400000000     0.736370000000     0.173240000000    -0.00724168 
C160     C      0.213320000000     0.762110000000     0.173300000000    -0.00732011 
C161     C      0.238890000000     0.798300000000     0.172880000000    -0.0505707  
C162     C      0.274760000000     0.808200000000     0.173280000000    -0.00728406 
C163     C      0.360010000000     0.696200000000     0.024110000000    -0.00686425 
C164     C      0.329000000000     0.694910000000     0.037730000000    -0.0510838  
C165     C      0.305650000000     0.695960000000     0.009080000000    -0.00639634 
C166     C      0.312170000000     0.696260000000     0.967510000000    -0.00682796 
C167     C      0.341890000000     0.694980000000     0.953880000000    -0.0510885  
C168     C      0.366260000000     0.695960000000     0.982540000000    -0.00642549 
C169     C      0.325530000000     0.716000000000     0.649200000000    -0.00644999 
C170     C      0.326510000000     0.692610000000     0.620550000000    -0.0510101  
C171     C      0.325230000000     0.661610000000     0.634180000000    -0.0068824  
C172     C      0.325530000000     0.655390000000     0.675750000000    -0.00640559 
C173     C      0.326580000000     0.679800000000     0.704400000000    -0.0510959  
C174     C      0.325300000000     0.709520000000     0.690780000000    -0.00683015 
C175     C      0.009220000000     0.746740000000     0.506600000000    -0.00719387 
C176     C      0.035190000000     0.782600000000     0.506210000000    -0.0506725  
C177     C      0.024570000000     0.808180000000     0.506640000000    -0.00728174 
C178     C      0.488750000000     0.798100000000     0.506580000000    -0.00735885 
C179     C      0.462780000000     0.762220000000     0.506270000000    -0.0505002  
C180     C      0.473400000000     0.736660000000     0.506720000000    -0.00735362 
C181     C      0.238790000000     0.736620000000     0.484780000000    -0.00731694 
C182     C      0.274980000000     0.762190000000     0.485210000000    -0.0505892  
C183     C      0.284880000000     0.798060000000     0.484820000000    -0.0072667  
C184     C      0.259140000000     0.808140000000     0.484700000000    -0.00729359 
C185     C      0.222950000000     0.782570000000     0.485160000000    -0.050624   
C186     C      0.213050000000     0.746700000000     0.484840000000    -0.00724403 
C187     C      0.311970000000     0.661490000000     0.357440000000    -0.00684157 
C188     C      0.341690000000     0.692500000000     0.371070000000    -0.0510882  
C189     C      0.366090000000     0.715850000000     0.342420000000    -0.0063673  
C190     C      0.359880000000     0.709330000000     0.300840000000    -0.00690673 
C191     C      0.328880000000     0.679610000000     0.287210000000    -0.0510296  
C192     C      0.305490000000     0.655240000000     0.315860000000    -0.00644058 
C193     C      0.801900000000     0.251140000000     0.487410000000     0.278284   
C194     C      0.924800000000     0.251170000000     0.504100000000     0.278481   
C195     C      0.832620000000     0.202630000000     0.577260000000     0.278886   
C196     C      0.845570000000     0.202550000000     0.414350000000     0.278848   
C197     C      0.770350000000     0.096480000000     0.154070000000     0.278504   
C198     C      0.770320000000     0.219350000000     0.170760000000     0.278387   
C199     C      0.818860000000     0.175710000000     0.243920000000     0.278792   
C200     C      0.818940000000     0.188730000000     0.081010000000     0.278959   
C201     C      0.696030000000     0.293630000000     0.487320000000     0.278516   
C202     C      0.573160000000     0.293650000000     0.504010000000     0.278528   
C203     C      0.665420000000     0.342250000000     0.577070000000     0.27884    
C204     C      0.652390000000     0.342170000000     0.414160000000     0.278855   
C205     C      0.727840000000     0.325220000000     0.170680000000     0.278337   
C206     C      0.727860000000     0.448120000000     0.153990000000     0.27831    
C207     C      0.679320000000     0.355940000000     0.080830000000     0.278834   
C208     C      0.679240000000     0.368880000000     0.243740000000     0.278883   
C209     C      0.696280000000     0.448320000000     0.837350000000     0.278429   
C210     C      0.573380000000     0.325460000000     0.820650000000     0.278503   
C211     C      0.665560000000     0.369100000000     0.747500000000     0.278934   
C212     C      0.652620000000     0.356070000000     0.910410000000     0.278758   
C213     C      0.802150000000     0.096690000000     0.837430000000     0.278315   
C214     C      0.925020000000     0.219580000000     0.820740000000     0.278455   
C215     C      0.832760000000     0.175920000000     0.747680000000     0.278967   
C216     C      0.845790000000     0.188870000000     0.910590000000     0.278819   
C217     C      0.759390000000     0.996920000000     0.839970000000    -0.00729312 
C218     C      0.723200000000     0.486300000000     0.839550000000    -0.0505745  
C219     C      0.713300000000     0.012270000000     0.839940000000    -0.00729858 
C220     C      0.739040000000     0.048090000000     0.840050000000    -0.00735799 
C221     C      0.775230000000     0.058710000000     0.839600000000    -0.0505368  
C222     C      0.785130000000     0.032740000000     0.839910000000    -0.00729552 
C223     C      0.524780000000     0.262340000000     0.818030000000    -0.00727639 
C224     C      0.535400000000     0.298530000000     0.818490000000    -0.0506243  
C225     C      0.509430000000     0.308430000000     0.818180000000    -0.00723065 
C226     C      0.973610000000     0.282700000000     0.818110000000    -0.00734871 
C227     C      0.962990000000     0.246510000000     0.818540000000    -0.05059    
C228     C      0.488970000000     0.236610000000     0.818140000000    -0.00730298 
C229     C      0.638310000000     0.348550000000     0.023910000000    -0.00686836 
C230     C      0.669310000000     0.349820000000     0.037540000000    -0.0510587  
C231     C      0.692700000000     0.348840000000     0.008890000000    -0.00648289 
C232     C      0.686210000000     0.348610000000     0.967310000000    -0.00678996 
C233     C      0.656490000000     0.349900000000     0.953680000000    -0.051129   
C234     C      0.632090000000     0.348850000000     0.982330000000    -0.00637928 
C235     C      0.672880000000     0.383310000000     0.633980000000    -0.00686852 
C236     C      0.671600000000     0.352300000000     0.620350000000    -0.0510573  
C237     C      0.672650000000     0.328950000000     0.649000000000    -0.00641459 
C238     C      0.672950000000     0.335470000000     0.690570000000    -0.00686088 
C239     C      0.671670000000     0.365190000000     0.704200000000    -0.0510496  
C240     C      0.672650000000     0.389560000000     0.675550000000    -0.00641705 
C241     C      0.686010000000     0.383190000000     0.357250000000    -0.00684414 
C242     C      0.656290000000     0.352180000000     0.370870000000    -0.0510799  
C243     C      0.631920000000     0.328790000000     0.342210000000    -0.0064283  
C244     C      0.638180000000     0.335280000000     0.300640000000    -0.00686599 
C245     C      0.669180000000     0.365010000000     0.287020000000    -0.0510297  
C246     C      0.692540000000     0.389410000000     0.315670000000    -0.00645907 
C247     C      0.784870000000     0.047890000000     0.151450000000    -0.00721943 
C248     C      0.759300000000     0.058510000000     0.151870000000    -0.0507072  
C249     C      0.723430000000     0.032530000000     0.151470000000    -0.00717724 
C250     C      0.713350000000     0.996720000000     0.151360000000    -0.00737182 
C251     C      0.738920000000     0.486100000000     0.151830000000    -0.0505486  
C252     C      0.774790000000     0.012070000000     0.151510000000    -0.00738811 
C253     C      0.784840000000     0.282460000000     0.173390000000    -0.00733511 
C254     C      0.759270000000     0.246270000000     0.172930000000    -0.0506057  
C255     C      0.723400000000     0.236370000000     0.173240000000    -0.00729123 
C256     C      0.713320000000     0.262110000000     0.173300000000    -0.0072853  
C257     C      0.738890000000     0.298300000000     0.172880000000    -0.0506254  
C258     C      0.774760000000     0.308200000000     0.173280000000    -0.00725338 
C259     C      0.860010000000     0.196200000000     0.024110000000    -0.00686364 
C260     C      0.829000000000     0.194910000000     0.037730000000    -0.0510821  
C261     C      0.805650000000     0.195960000000     0.009080000000    -0.00639659 
C262     C      0.812170000000     0.196260000000     0.967510000000    -0.0068276  
C263     C      0.841890000000     0.194980000000     0.953880000000    -0.051088   
C264     C      0.866260000000     0.195960000000     0.982540000000    -0.00642441 
C265     C      0.825530000000     0.216000000000     0.649200000000    -0.00641561 
C266     C      0.826510000000     0.192610000000     0.620550000000    -0.0510924  
C267     C      0.825230000000     0.161610000000     0.634180000000    -0.00681957 
C268     C      0.825530000000     0.155390000000     0.675750000000    -0.00640733 
C269     C      0.826580000000     0.179790000000     0.704400000000    -0.0511232  
C270     C      0.825300000000     0.209510000000     0.690780000000    -0.00680341 
C271     C      0.509210000000     0.246730000000     0.506600000000    -0.00721582 
C272     C      0.535190000000     0.282600000000     0.506210000000    -0.0506792  
C273     C      0.524570000000     0.308170000000     0.506640000000    -0.00726451 
C274     C      0.988750000000     0.298090000000     0.506580000000    -0.00728535 
C275     C      0.962780000000     0.262220000000     0.506270000000    -0.0505697  
C276     C      0.973400000000     0.236650000000     0.506720000000    -0.00736191 
C277     C      0.738790000000     0.236620000000     0.484780000000    -0.00732814 
C278     C      0.774980000000     0.262190000000     0.485210000000    -0.0505695  
C279     C      0.784880000000     0.298060000000     0.484820000000    -0.00730488 
C280     C      0.759140000000     0.308140000000     0.484700000000    -0.00727687 
C281     C      0.722950000000     0.282570000000     0.485160000000    -0.0506348  
C282     C      0.713050000000     0.246700000000     0.484840000000    -0.00723685 
C283     C      0.811970000000     0.161490000000     0.357440000000    -0.00684191 
C284     C      0.841690000000     0.192500000000     0.371070000000    -0.0510872  
C285     C      0.866090000000     0.215850000000     0.342420000000    -0.00636656 
C286     C      0.859880000000     0.209330000000     0.300840000000    -0.00690566 
C287     C      0.828880000000     0.179610000000     0.287210000000    -0.0510294  
C288     C      0.805490000000     0.155240000000     0.315860000000    -0.00644061 
C289     C      0.801900000000     0.751140000000     0.487410000000     0.278294   
C290     C      0.924800000000     0.751170000000     0.504100000000     0.278297   
C291     C      0.832620000000     0.702630000000     0.577260000000     0.278702   
C292     C      0.845570000000     0.702550000000     0.414350000000     0.278848   
C293     C      0.770350000000     0.596480000000     0.154070000000     0.278297   
C294     C      0.770320000000     0.719350000000     0.170760000000     0.278418   
C295     C      0.818860000000     0.675710000000     0.243920000000     0.278791   
C296     C      0.818940000000     0.688730000000     0.081010000000     0.27896    
C297     C      0.696030000000     0.793630000000     0.487320000000     0.278507   
C298     C      0.573160000000     0.793650000000     0.504010000000     0.278487   
C299     C      0.665420000000     0.842250000000     0.577070000000     0.278816   
C300     C      0.652390000000     0.842170000000     0.414160000000     0.278873   
C301     C      0.727840000000     0.825230000000     0.170680000000     0.278455   
C302     C      0.727860000000     0.948120000000     0.153990000000     0.278288   
C303     C      0.679320000000     0.855940000000     0.080830000000     0.278821   
C304     C      0.679240000000     0.868880000000     0.243740000000     0.278772   
C305     C      0.696280000000     0.948320000000     0.837350000000     0.278428   
C306     C      0.573380000000     0.825460000000     0.820650000000     0.278502   
C307     C      0.665560000000     0.869090000000     0.747500000000     0.278862   
C308     C      0.652620000000     0.856070000000     0.910410000000     0.278749   
C309     C      0.802150000000     0.596690000000     0.837430000000     0.278465   
C310     C      0.925020000000     0.719580000000     0.820740000000     0.278471   
C311     C      0.832760000000     0.675920000000     0.747680000000     0.278952   
C312     C      0.845790000000     0.688870000000     0.910590000000     0.278819   
C313     C      0.759390000000     0.496920000000     0.839970000000    -0.00732332 
C314     C      0.723200000000     0.986300000000     0.839550000000    -0.0505698  
C315     C      0.713300000000     0.512270000000     0.839940000000    -0.00729669 
C316     C      0.739040000000     0.548090000000     0.840050000000    -0.00732986 
C317     C      0.775230000000     0.558710000000     0.839600000000    -0.0506035  
C318     C      0.785130000000     0.532740000000     0.839900000000    -0.00724897 
C319     C      0.524780000000     0.762340000000     0.818030000000    -0.00728969 
C320     C      0.535400000000     0.798530000000     0.818490000000    -0.0506205  
C321     C      0.509430000000     0.808430000000     0.818180000000    -0.00722966 
C322     C      0.973610000000     0.782700000000     0.818110000000    -0.00735626 
C323     C      0.962990000000     0.746500000000     0.818540000000    -0.0506139  
C324     C      0.488970000000     0.736610000000     0.818140000000    -0.00727254 
C325     C      0.638310000000     0.848540000000     0.023910000000    -0.00681742 
C326     C      0.669310000000     0.849820000000     0.037540000000    -0.0510755  
C327     C      0.692700000000     0.848840000000     0.008890000000    -0.00647121 
C328     C      0.686210000000     0.848610000000     0.967310000000    -0.00680296 
C329     C      0.656490000000     0.849900000000     0.953680000000    -0.0511067  
C330     C      0.632090000000     0.848850000000     0.982330000000    -0.00642945 
C331     C      0.672880000000     0.883310000000     0.633980000000    -0.00687811 
C332     C      0.671600000000     0.852300000000     0.620350000000    -0.0510428  
C333     C      0.672650000000     0.828950000000     0.649000000000    -0.00642811 
C334     C      0.672950000000     0.835470000000     0.690570000000    -0.00684409 
C335     C      0.671670000000     0.865190000000     0.704200000000    -0.0510551  
C336     C      0.672650000000     0.889560000000     0.675550000000    -0.00640785 
C337     C      0.686010000000     0.883190000000     0.357250000000    -0.00680886 
C338     C      0.656290000000     0.852180000000     0.370870000000    -0.0511311  
C339     C      0.631930000000     0.828800000000     0.342210000000    -0.00633524 
C340     C      0.638180000000     0.835280000000     0.300640000000    -0.00692554 
C341     C      0.669180000000     0.865000000000     0.287020000000    -0.050973   
C342     C      0.692540000000     0.889410000000     0.315670000000    -0.00650243 
C343     C      0.784870000000     0.547890000000     0.151450000000    -0.00730379 
C344     C      0.759300000000     0.558500000000     0.151870000000    -0.0505543  
C345     C      0.723430000000     0.532530000000     0.151480000000    -0.00724967 
C346     C      0.713350000000     0.496720000000     0.151370000000    -0.00733518 
C347     C      0.738920000000     0.986100000000     0.151820000000    -0.0504836  
C348     C      0.774790000000     0.512070000000     0.151520000000    -0.00729615 
C349     C      0.784840000000     0.782460000000     0.173390000000    -0.0072565  
C350     C      0.759270000000     0.746270000000     0.172930000000    -0.0506644  
C351     C      0.723400000000     0.736370000000     0.173240000000    -0.00722868 
C352     C      0.713320000000     0.762110000000     0.173300000000    -0.00733139 
C353     C      0.738890000000     0.798300000000     0.172880000000    -0.0505584  
C354     C      0.774760000000     0.808200000000     0.173280000000    -0.00731031 
C355     C      0.860010000000     0.696200000000     0.024110000000    -0.00686313 
C356     C      0.829000000000     0.694910000000     0.037730000000    -0.0510829  
C357     C      0.805650000000     0.695960000000     0.009080000000    -0.00639618 
C358     C      0.812170000000     0.696260000000     0.967510000000    -0.00682771 
C359     C      0.841890000000     0.694980000000     0.953880000000    -0.0510875  
C360     C      0.866260000000     0.695960000000     0.982540000000    -0.00642448 
C361     C      0.825530000000     0.716000000000     0.649200000000    -0.00644981 
C362     C      0.826510000000     0.692610000000     0.620550000000    -0.0510097  
C363     C      0.825230000000     0.661610000000     0.634180000000    -0.00688221 
C364     C      0.825530000000     0.655390000000     0.675750000000    -0.00640537 
C365     C      0.826580000000     0.679800000000     0.704400000000    -0.0510956  
C366     C      0.825300000000     0.709520000000     0.690780000000    -0.00683    
C367     C      0.509220000000     0.746740000000     0.506600000000    -0.00720215 
C368     C      0.535190000000     0.782600000000     0.506210000000    -0.0506731  
C369     C      0.524570000000     0.808180000000     0.506640000000    -0.00728671 
C370     C      0.988750000000     0.798100000000     0.506580000000    -0.00735384 
C371     C      0.962780000000     0.762220000000     0.506270000000    -0.0504978  
C372     C      0.973400000000     0.736660000000     0.506720000000    -0.00735189 
C373     C      0.738790000000     0.736620000000     0.484780000000    -0.00730124 
C374     C      0.774980000000     0.762190000000     0.485210000000    -0.0505967  
C375     C      0.784880000000     0.798060000000     0.484820000000    -0.00725927 
C376     C      0.759140000000     0.808140000000     0.484700000000    -0.00730283 
C377     C      0.722950000000     0.782570000000     0.485160000000    -0.0506046  
C378     C      0.713050000000     0.746700000000     0.484840000000    -0.00728166 
C379     C      0.811970000000     0.661490000000     0.357440000000    -0.00684137 
C380     C      0.841690000000     0.692500000000     0.371070000000    -0.0510873  
C381     C      0.866090000000     0.715850000000     0.342420000000    -0.00636634 
C382     C      0.859880000000     0.709330000000     0.300840000000    -0.00690572 
C383     C      0.828880000000     0.679610000000     0.287210000000    -0.0510288  
C384     C      0.805490000000     0.655240000000     0.315860000000    -0.00644033 
Cd1      Cd     0.351080000000     0.226610000000     0.495780000000     0.51532    
Cd2      Cd     0.294880000000     0.170190000000     0.162440000000     0.515311   
Cd3      Cd     0.146870000000     0.318180000000     0.495630000000     0.515313   
Cd4      Cd     0.203300000000     0.374400000000     0.162310000000     0.515316   
Cd5      Cd     0.147100000000     0.374620000000     0.828970000000     0.515337   
Cd6      Cd     0.351310000000     0.170400000000     0.829110000000     0.515343   
Cd7      Cd     0.351080000000     0.726610000000     0.495780000000     0.515294   
Cd8      Cd     0.294880000000     0.670190000000     0.162440000000     0.515315   
Cd9      Cd     0.146870000000     0.818190000000     0.495630000000     0.515329   
Cd10     Cd     0.203300000000     0.874400000000     0.162310000000     0.515314   
Cd11     Cd     0.147100000000     0.874610000000     0.828970000000     0.515326   
Cd12     Cd     0.351310000000     0.670400000000     0.829110000000     0.515344   
Cd13     Cd     0.851080000000     0.226610000000     0.495780000000     0.515321   
Cd14     Cd     0.794880000000     0.170190000000     0.162440000000     0.51533    
Cd15     Cd     0.646870000000     0.318180000000     0.495630000000     0.515317   
Cd16     Cd     0.703300000000     0.374400000000     0.162310000000     0.515315   
Cd17     Cd     0.647100000000     0.374620000000     0.828970000000     0.515336   
Cd18     Cd     0.851310000000     0.170400000000     0.829110000000     0.515344   
Cd19     Cd     0.851080000000     0.726610000000     0.495780000000     0.515295   
Cd20     Cd     0.794880000000     0.670190000000     0.162440000000     0.515334   
Cd21     Cd     0.646870000000     0.818190000000     0.495630000000     0.515329   
Cd22     Cd     0.703300000000     0.874400000000     0.162310000000     0.515314   
Cd23     Cd     0.647100000000     0.874610000000     0.828970000000     0.515339   
Cd24     Cd     0.851310000000     0.670400000000     0.829110000000     0.515363   
H1       H      0.267930000000     0.477540000000     0.839700000000     0.0583529  
H2       H      0.185700000000     0.004970000000     0.839680000000     0.0579465  
H3       H      0.230500000000     0.067460000000     0.839850000000     0.0583742  
H4       H      0.312740000000     0.040040000000     0.839620000000     0.0579361  
H5       H      0.044160000000     0.253800000000     0.818230000000     0.0583506  
H6       H      0.016730000000     0.336040000000     0.818470000000     0.0579243  
H7       H      0.454240000000     0.291240000000     0.818380000000     0.0583706  
H8       H      0.481660000000     0.209000000000     0.818400000000     0.057946   
H9       H      0.119820000000     0.349240000000     0.045270000000     0.057584   
H10      H      0.216710000000     0.349530000000     0.018580000000     0.0572063  
H11      H      0.205420000000     0.349360000000     0.945950000000     0.0575566  
H12      H      0.108760000000     0.349540000000     0.972640000000     0.0571773  
H13      H      0.172140000000     0.401770000000     0.612620000000     0.0575838  
H14      H      0.171960000000     0.304930000000     0.639310000000     0.0571824  
H15      H      0.172250000000     0.316290000000     0.711930000000     0.057587   
H16      H      0.171960000000     0.412890000000     0.685250000000     0.0571825  
H17      H      0.205190000000     0.401670000000     0.378610000000     0.0575828  
H18      H      0.108590000000     0.304780000000     0.351900000000     0.0571903  
H19      H      0.119720000000     0.316080000000     0.279280000000     0.0575832  
H20      H      0.216550000000     0.412740000000     0.305990000000     0.0571959  
H21      H      0.312790000000     0.067260000000     0.151710000000     0.0583416  
H22      H      0.203120000000     0.039840000000     0.151730000000     0.057918   
H23      H      0.185430000000     0.477340000000     0.151570000000     0.058361   
H24      H      0.295090000000     0.004770000000     0.151810000000     0.0579586  
H25      H      0.312750000000     0.291000000000     0.173190000000     0.0583724  
H26      H      0.203090000000     0.208770000000     0.172940000000     0.0579358  
H27      H      0.185400000000     0.253570000000     0.173030000000     0.0583479  
H28      H      0.295060000000     0.335810000000     0.173020000000     0.0579348  
H29      H      0.378460000000     0.195450000000     0.045470000000     0.0575785  
H30      H      0.281630000000     0.195280000000     0.018770000000     0.0571746  
H31      H      0.292990000000     0.195570000000     0.946140000000     0.0575737  
H32      H      0.389590000000     0.195280000000     0.972850000000     0.057184   
H33      H      0.326220000000     0.240020000000     0.639510000000     0.0571907  
H34      H      0.325920000000     0.143120000000     0.612810000000     0.0575726  
H35      H      0.326220000000     0.132060000000     0.685440000000     0.0571743  
H36      H      0.326040000000     0.228720000000     0.712140000000     0.0575528  
H37      H      0.016520000000     0.226430000000     0.506340000000     0.0579315  
H38      H      0.043940000000     0.336090000000     0.506380000000     0.0583472  
H39      H      0.481450000000     0.318400000000     0.506290000000     0.0579343  
H40      H      0.454020000000     0.208740000000     0.506510000000     0.0583763  
H41      H      0.230250000000     0.208700000000     0.485040000000     0.0583555  
H42      H      0.312490000000     0.318370000000     0.485080000000     0.0579379  
H43      H      0.267680000000     0.336060000000     0.484910000000     0.0583575  
H44      H      0.185440000000     0.226390000000     0.485130000000     0.0579256  
H45      H      0.292770000000     0.143030000000     0.378800000000     0.0575753  
H46      H      0.389420000000     0.239870000000     0.352110000000     0.057173   
H47      H      0.378360000000     0.228510000000     0.279490000000     0.0575972  
H48      H      0.281470000000     0.131910000000     0.306170000000     0.0571837  
H49      H      0.267930000000     0.977540000000     0.839710000000     0.0583539  
H50      H      0.185700000000     0.504970000000     0.839680000000     0.0579461  
H51      H      0.230500000000     0.567460000000     0.839850000000     0.058376   
H52      H      0.312740000000     0.540040000000     0.839620000000     0.0579349  
H53      H      0.044160000000     0.753800000000     0.818230000000     0.0583526  
H54      H      0.016730000000     0.836040000000     0.818470000000     0.057925   
H55      H      0.454240000000     0.791240000000     0.818380000000     0.0583729  
H56      H      0.481660000000     0.709000000000     0.818400000000     0.0579394  
H57      H      0.119820000000     0.849240000000     0.045270000000     0.0575959  
H58      H      0.216710000000     0.849530000000     0.018580000000     0.0572127  
H59      H      0.205420000000     0.849360000000     0.945950000000     0.0575565  
H60      H      0.108760000000     0.849530000000     0.972640000000     0.0571815  
H61      H      0.172140000000     0.901770000000     0.612620000000     0.0575836  
H62      H      0.171960000000     0.804930000000     0.639310000000     0.0571819  
H63      H      0.172260000000     0.816290000000     0.711930000000     0.0575818  
H64      H      0.171960000000     0.912890000000     0.685250000000     0.0571911  
H65      H      0.205190000000     0.901670000000     0.378610000000     0.0575896  
H66      H      0.108590000000     0.804780000000     0.351900000000     0.0571617  
H67      H      0.119720000000     0.816080000000     0.279280000000     0.0575915  
H68      H      0.216550000000     0.912740000000     0.305990000000     0.0572033  
H69      H      0.312790000000     0.567260000000     0.151710000000     0.058364   
H70      H      0.203120000000     0.539840000000     0.151730000000     0.0579314  
H71      H      0.185430000000     0.977340000000     0.151570000000     0.0583739  
H72      H      0.295090000000     0.504760000000     0.151810000000     0.0579401  
H73      H      0.312750000000     0.791000000000     0.173190000000     0.0583675  
H74      H      0.203090000000     0.708760000000     0.172940000000     0.0579245  
H75      H      0.185400000000     0.753570000000     0.173040000000     0.0583605  
H76      H      0.295060000000     0.835810000000     0.173020000000     0.057945   
H77      H      0.378460000000     0.695450000000     0.045470000000     0.0575784  
H78      H      0.281630000000     0.695280000000     0.018770000000     0.0571741  
H79      H      0.292990000000     0.695570000000     0.946140000000     0.0575741  
H80      H      0.389590000000     0.695280000000     0.972850000000     0.0571844  
H81      H      0.326220000000     0.740020000000     0.639510000000     0.0571939  
H82      H      0.325920000000     0.643130000000     0.612810000000     0.0575966  
H83      H      0.326220000000     0.632060000000     0.685440000000     0.0571766  
H84      H      0.326040000000     0.728720000000     0.712140000000     0.0575713  
H85      H      0.016520000000     0.726430000000     0.506340000000     0.0579245  
H86      H      0.043940000000     0.836090000000     0.506380000000     0.0583531  
H87      H      0.481450000000     0.818400000000     0.506290000000     0.0579608  
H88      H      0.454020000000     0.708740000000     0.506510000000     0.0583679  
H89      H      0.230250000000     0.708700000000     0.485040000000     0.0583564  
H90      H      0.312490000000     0.818370000000     0.485080000000     0.057939   
H91      H      0.267680000000     0.836060000000     0.484910000000     0.0583585  
H92      H      0.185440000000     0.726390000000     0.485130000000     0.0579265  
H93      H      0.292770000000     0.643030000000     0.378800000000     0.0575745  
H94      H      0.389430000000     0.739870000000     0.352110000000     0.0571602  
H95      H      0.378360000000     0.728510000000     0.279490000000     0.0576014  
H96      H      0.281470000000     0.631910000000     0.306170000000     0.0571862  
H97      H      0.767930000000     0.477540000000     0.839700000000     0.0583579  
H98      H      0.685700000000     0.004970000000     0.839680000000     0.0579442  
H99      H      0.730500000000     0.067460000000     0.839850000000     0.058373   
H100     H      0.812740000000     0.040040000000     0.839620000000     0.0579377  
H101     H      0.544160000000     0.253800000000     0.818230000000     0.0583476  
H102     H      0.516730000000     0.336040000000     0.818470000000     0.0579199  
H103     H      0.954240000000     0.291240000000     0.818380000000     0.0583738  
H104     H      0.981660000000     0.209000000000     0.818400000000     0.0579505  
H105     H      0.619820000000     0.349240000000     0.045270000000     0.0575808  
H106     H      0.716710000000     0.349530000000     0.018580000000     0.0572067  
H107     H      0.705420000000     0.349360000000     0.945950000000     0.0575568  
H108     H      0.608760000000     0.349540000000     0.972640000000     0.0571742  
H109     H      0.672140000000     0.401770000000     0.612620000000     0.0575819  
H110     H      0.671960000000     0.304930000000     0.639310000000     0.057177   
H111     H      0.672250000000     0.316290000000     0.711930000000     0.0575867  
H112     H      0.671960000000     0.412890000000     0.685250000000     0.0571822  
H113     H      0.705190000000     0.401670000000     0.378610000000     0.057583   
H114     H      0.608590000000     0.304780000000     0.351900000000     0.0571873  
H115     H      0.619720000000     0.316080000000     0.279280000000     0.0575801  
H116     H      0.716550000000     0.412740000000     0.305990000000     0.0571962  
H117     H      0.812790000000     0.067260000000     0.151710000000     0.0583321  
H118     H      0.703120000000     0.039840000000     0.151730000000     0.0579069  
H119     H      0.685430000000     0.477340000000     0.151570000000     0.0583629  
H120     H      0.795090000000     0.004770000000     0.151810000000     0.0579641  
H121     H      0.812750000000     0.291000000000     0.173190000000     0.0583744  
H122     H      0.703090000000     0.208770000000     0.172940000000     0.057934   
H123     H      0.685400000000     0.253570000000     0.173030000000     0.0583459  
H124     H      0.795060000000     0.335810000000     0.173020000000     0.0579368  
H125     H      0.878460000000     0.195450000000     0.045470000000     0.0575814  
H126     H      0.781630000000     0.195280000000     0.018770000000     0.0571742  
H127     H      0.792990000000     0.195570000000     0.946140000000     0.0575734  
H128     H      0.889590000000     0.195280000000     0.972850000000     0.057187   
H129     H      0.826210000000     0.240020000000     0.639510000000     0.0571786  
H130     H      0.825920000000     0.143120000000     0.612810000000     0.0575715  
H131     H      0.826220000000     0.132060000000     0.685440000000     0.0571765  
H132     H      0.826040000000     0.228720000000     0.712140000000     0.0575572  
H133     H      0.516520000000     0.226430000000     0.506340000000     0.0579275  
H134     H      0.543940000000     0.336090000000     0.506380000000     0.0583445  
H135     H      0.981450000000     0.318400000000     0.506290000000     0.0579389  
H136     H      0.954020000000     0.208740000000     0.506510000000     0.0583794  
H137     H      0.730250000000     0.208700000000     0.485040000000     0.0583566  
H138     H      0.812480000000     0.318370000000     0.485080000000     0.0579493  
H139     H      0.767680000000     0.336060000000     0.484910000000     0.0583531  
H140     H      0.685440000000     0.226390000000     0.485130000000     0.0579216  
H141     H      0.792770000000     0.143030000000     0.378800000000     0.0575732  
H142     H      0.889430000000     0.239870000000     0.352110000000     0.0571632  
H143     H      0.878360000000     0.228510000000     0.279490000000     0.057604   
H144     H      0.781470000000     0.131910000000     0.306170000000     0.0571847  
H145     H      0.767930000000     0.977540000000     0.839710000000     0.0583544  
H146     H      0.685700000000     0.504970000000     0.839680000000     0.057948   
H147     H      0.730500000000     0.567460000000     0.839850000000     0.0583634  
H148     H      0.812740000000     0.540040000000     0.839620000000     0.0579278  
H149     H      0.544160000000     0.753800000000     0.818230000000     0.0583501  
H150     H      0.516730000000     0.836040000000     0.818470000000     0.0579209  
H151     H      0.954240000000     0.791240000000     0.818380000000     0.0583761  
H152     H      0.981660000000     0.709000000000     0.818400000000     0.0579442  
H153     H      0.619820000000     0.849240000000     0.045270000000     0.0575655  
H154     H      0.716710000000     0.849530000000     0.018580000000     0.0572077  
H155     H      0.705420000000     0.849360000000     0.945950000000     0.0575607  
H156     H      0.608760000000     0.849530000000     0.972640000000     0.0571893  
H157     H      0.672140000000     0.901770000000     0.612620000000     0.0575851  
H158     H      0.671960000000     0.804930000000     0.639310000000     0.0571836  
H159     H      0.672260000000     0.816290000000     0.711930000000     0.0575742  
H160     H      0.671960000000     0.912890000000     0.685250000000     0.0571839  
H161     H      0.705190000000     0.901670000000     0.378610000000     0.0575756  
H162     H      0.608590000000     0.804780000000     0.351900000000     0.057156   
H163     H      0.619720000000     0.816080000000     0.279280000000     0.0575906  
H164     H      0.716550000000     0.912740000000     0.305990000000     0.0572091  
H165     H      0.812790000000     0.567260000000     0.151710000000     0.0583546  
H166     H      0.703120000000     0.539840000000     0.151730000000     0.0579205  
H167     H      0.685430000000     0.977340000000     0.151570000000     0.0583757  
H168     H      0.795090000000     0.504760000000     0.151810000000     0.0579459  
H169     H      0.812760000000     0.791000000000     0.173190000000     0.0583515  
H170     H      0.703090000000     0.708760000000     0.172940000000     0.0579193  
H171     H      0.685400000000     0.753570000000     0.173040000000     0.0583611  
H172     H      0.795060000000     0.835810000000     0.173020000000     0.0579536  
H173     H      0.878460000000     0.695450000000     0.045470000000     0.0575813  
H174     H      0.781630000000     0.695280000000     0.018770000000     0.0571735  
H175     H      0.792990000000     0.695570000000     0.946140000000     0.0575736  
H176     H      0.889590000000     0.695280000000     0.972850000000     0.0571874  
H177     H      0.826220000000     0.740020000000     0.639510000000     0.0571946  
H178     H      0.825920000000     0.643130000000     0.612810000000     0.0575974  
H179     H      0.826220000000     0.632060000000     0.685440000000     0.0571774  
H180     H      0.826040000000     0.728720000000     0.712140000000     0.0575719  
H181     H      0.516520000000     0.726430000000     0.506340000000     0.0579204  
H182     H      0.543940000000     0.836090000000     0.506380000000     0.0583503  
H183     H      0.981450000000     0.818400000000     0.506290000000     0.0579653  
H184     H      0.954020000000     0.708740000000     0.506510000000     0.0583711  
H185     H      0.730250000000     0.708700000000     0.485040000000     0.0583503  
H186     H      0.812490000000     0.818370000000     0.485080000000     0.057939   
H187     H      0.767680000000     0.836060000000     0.484910000000     0.0583618  
H188     H      0.685450000000     0.726390000000     0.485130000000     0.0579341  
H189     H      0.792770000000     0.643030000000     0.378800000000     0.0575743  
H190     H      0.889430000000     0.739870000000     0.352110000000     0.0571631  
H191     H      0.878360000000     0.728510000000     0.279490000000     0.0576041  
H192     H      0.781470000000     0.631910000000     0.306170000000     0.0571858  
O1       O      0.413880000000     0.273180000000     0.500830000000    -0.224524   
O2       O      0.328520000000     0.180550000000     0.442520000000    -0.22475    
O3       O      0.334840000000     0.273170000000     0.490670000000    -0.224413   
O4       O      0.345580000000     0.234670000000     0.567000000000    -0.233883   
O5       O      0.327640000000     0.180600000000     0.549100000000    -0.224698   
O6       O      0.292730000000     0.218670000000     0.487410000000    -0.233386   
O7       O      0.401510000000     0.218700000000     0.504160000000    -0.233432   
O8       O      0.364650000000     0.234610000000     0.424580000000    -0.233836   
O9       O      0.248310000000     0.186410000000     0.167480000000    -0.224444   
O10      O      0.340940000000     0.193690000000     0.109190000000    -0.224765   
O11      O      0.248320000000     0.107390000000     0.157320000000    -0.224436   
O12      O      0.286810000000     0.156620000000     0.233650000000    -0.233795   
O13      O      0.340890000000     0.192750000000     0.215770000000    -0.224718   
O14      O      0.302820000000     0.119770000000     0.154070000000    -0.233405   
O15      O      0.302790000000     0.228530000000     0.170820000000    -0.233406   
O16      O      0.286890000000     0.175760000000     0.091230000000    -0.233922   
O17      O      0.084070000000     0.271630000000     0.500760000000    -0.224555   
O18      O      0.169430000000     0.364190000000     0.442320000000    -0.224751   
O19      O      0.163090000000     0.271610000000     0.490590000000    -0.224477   
O20      O      0.152450000000     0.310190000000     0.566840000000    -0.233803   
O21      O      0.170370000000     0.364250000000     0.548900000000    -0.224718   
O22      O      0.205210000000     0.326090000000     0.487260000000    -0.233524   
O23      O      0.096450000000     0.326120000000     0.504010000000    -0.233438   
O24      O      0.133300000000     0.310120000000     0.424420000000    -0.23382    
O25      O      0.249880000000     0.437200000000     0.157270000000    -0.224405   
O26      O      0.157240000000     0.351840000000     0.215570000000    -0.224786   
O27      O      0.249860000000     0.358160000000     0.167430000000    -0.224433   
O28      O      0.211370000000     0.368900000000     0.091100000000    -0.233794   
O29      O      0.157300000000     0.350950000000     0.108990000000    -0.224752   
O30      O      0.195370000000     0.316050000000     0.170680000000    -0.233377   
O31      O      0.195390000000     0.424830000000     0.153930000000    -0.233397   
O32      O      0.211300000000     0.387970000000     0.233520000000    -0.233836   
O33      O      0.084300000000     0.358390000000     0.823920000000    -0.224529   
O34      O      0.169660000000     0.351120000000     0.882230000000    -0.224727   
O35      O      0.163340000000     0.437410000000     0.834090000000    -0.224463   
O36      O      0.152600000000     0.388180000000     0.757760000000    -0.233916   
O37      O      0.170540000000     0.352050000000     0.775650000000    -0.224749   
O38      O      0.205450000000     0.425030000000     0.837350000000    -0.233497   
O39      O      0.096670000000     0.316280000000     0.820590000000    -0.233434   
O40      O      0.133530000000     0.369050000000     0.900180000000    -0.233717   
O41      O      0.414110000000     0.186640000000     0.823990000000    -0.224459   
O42      O      0.328750000000     0.193850000000     0.882430000000    -0.224723   
O43      O      0.335090000000     0.107610000000     0.834160000000    -0.224426   
O44      O      0.345730000000     0.156830000000     0.757910000000    -0.233858   
O45      O      0.327810000000     0.192960000000     0.775850000000    -0.22483    
O46      O      0.292970000000     0.119980000000     0.837490000000    -0.233395   
O47      O      0.401730000000     0.228750000000     0.820740000000    -0.233486   
O48      O      0.364880000000     0.175910000000     0.900320000000    -0.233789   
O49      O      0.413880000000     0.773190000000     0.500830000000    -0.224404   
O50      O      0.328520000000     0.680550000000     0.442520000000    -0.224751   
O51      O      0.334840000000     0.773170000000     0.490670000000    -0.224411   
O52      O      0.345580000000     0.734680000000     0.567000000000    -0.233767   
O53      O      0.327640000000     0.680600000000     0.549100000000    -0.224657   
O54      O      0.292730000000     0.718670000000     0.487410000000    -0.233385   
O55      O      0.401510000000     0.718700000000     0.504160000000    -0.233392   
O56      O      0.364650000000     0.734610000000     0.424580000000    -0.233838   
O57      O      0.248310000000     0.686410000000     0.167490000000    -0.224456   
O58      O      0.340940000000     0.693690000000     0.109190000000    -0.224766   
O59      O      0.248320000000     0.607400000000     0.157320000000    -0.224333   
O60      O      0.286810000000     0.656620000000     0.233650000000    -0.233791   
O61      O      0.340890000000     0.692750000000     0.215770000000    -0.224718   
O62      O      0.302820000000     0.619770000000     0.154070000000    -0.233349   
O63      O      0.302790000000     0.728530000000     0.170820000000    -0.233411   
O64      O      0.286890000000     0.675760000000     0.091230000000    -0.233925   
O65      O      0.084070000000     0.771630000000     0.500760000000    -0.224528   
O66      O      0.169430000000     0.864190000000     0.442320000000    -0.224768   
O67      O      0.163090000000     0.771610000000     0.490590000000    -0.224452   
O68      O      0.152450000000     0.810190000000     0.566840000000    -0.233795   
O69      O      0.170370000000     0.864250000000     0.548900000000    -0.224732   
O70      O      0.205210000000     0.826090000000     0.487260000000    -0.233515   
O71      O      0.096460000000     0.826120000000     0.504010000000    -0.233436   
O72      O      0.133300000000     0.810120000000     0.424420000000    -0.23382    
O73      O      0.249880000000     0.937200000000     0.157270000000    -0.224394   
O74      O      0.157240000000     0.851840000000     0.215560000000    -0.22472    
O75      O      0.249860000000     0.858160000000     0.167430000000    -0.224528   
O76      O      0.211370000000     0.868890000000     0.091100000000    -0.233776   
O77      O      0.157300000000     0.850950000000     0.108990000000    -0.224744   
O78      O      0.195370000000     0.816050000000     0.170680000000    -0.233434   
O79      O      0.195390000000     0.924830000000     0.153930000000    -0.233392   
O80      O      0.211300000000     0.887970000000     0.233520000000    -0.233804   
O81      O      0.084300000000     0.858390000000     0.823920000000    -0.224522   
O82      O      0.169660000000     0.851120000000     0.882230000000    -0.224742   
O83      O      0.163340000000     0.937410000000     0.834090000000    -0.224432   
O84      O      0.152600000000     0.888190000000     0.757760000000    -0.233723   
O85      O      0.170550000000     0.852060000000     0.775650000000    -0.22479    
O86      O      0.205450000000     0.925030000000     0.837350000000    -0.233479   
O87      O      0.096670000000     0.816280000000     0.820590000000    -0.23346    
O88      O      0.133530000000     0.869050000000     0.900180000000    -0.233712   
O89      O      0.414110000000     0.686640000000     0.823990000000    -0.224462   
O90      O      0.328750000000     0.693850000000     0.882430000000    -0.224722   
O91      O      0.335090000000     0.607610000000     0.834160000000    -0.224425   
O92      O      0.345730000000     0.656830000000     0.757910000000    -0.233854   
O93      O      0.327810000000     0.692960000000     0.775850000000    -0.224824   
O94      O      0.292970000000     0.619980000000     0.837490000000    -0.233395   
O95      O      0.401730000000     0.728750000000     0.820740000000    -0.23349    
O96      O      0.364880000000     0.675910000000     0.900320000000    -0.233789   
O97      O      0.913880000000     0.273180000000     0.500830000000    -0.224521   
O98      O      0.828520000000     0.180550000000     0.442520000000    -0.224751   
O99      O      0.834840000000     0.273170000000     0.490670000000    -0.224406   
O100     O      0.845580000000     0.234670000000     0.567000000000    -0.233882   
O101     O      0.827640000000     0.180600000000     0.549100000000    -0.224699   
O102     O      0.792730000000     0.218670000000     0.487410000000    -0.233385   
O103     O      0.901510000000     0.218700000000     0.504160000000    -0.23343    
O104     O      0.864650000000     0.234610000000     0.424580000000    -0.233834   
O105     O      0.748310000000     0.186410000000     0.167480000000    -0.224446   
O106     O      0.840940000000     0.193690000000     0.109190000000    -0.224761   
O107     O      0.748320000000     0.107390000000     0.157320000000    -0.224468   
O108     O      0.786810000000     0.156620000000     0.233650000000    -0.233793   
O109     O      0.840890000000     0.192750000000     0.215770000000    -0.224715   
O110     O      0.802810000000     0.119770000000     0.154070000000    -0.233503   
O111     O      0.802790000000     0.228530000000     0.170820000000    -0.233405   
O112     O      0.786890000000     0.175760000000     0.091230000000    -0.233921   
O113     O      0.584070000000     0.271630000000     0.500760000000    -0.224555   
O114     O      0.669430000000     0.364190000000     0.442320000000    -0.224752   
O115     O      0.663090000000     0.271610000000     0.490590000000    -0.224482   
O116     O      0.652440000000     0.310190000000     0.566840000000    -0.233819   
O117     O      0.670370000000     0.364250000000     0.548900000000    -0.224723   
O118     O      0.705210000000     0.326090000000     0.487260000000    -0.233528   
O119     O      0.596450000000     0.326120000000     0.504010000000    -0.233437   
O120     O      0.633300000000     0.310120000000     0.424420000000    -0.233822   
O121     O      0.749880000000     0.437200000000     0.157270000000    -0.224403   
O122     O      0.657240000000     0.351840000000     0.215570000000    -0.224789   
O123     O      0.749860000000     0.358160000000     0.167430000000    -0.224431   
O124     O      0.711370000000     0.368900000000     0.091100000000    -0.233794   
O125     O      0.657300000000     0.350950000000     0.108990000000    -0.224755   
O126     O      0.695370000000     0.316050000000     0.170680000000    -0.233379   
O127     O      0.695390000000     0.424830000000     0.153930000000    -0.233397   
O128     O      0.711300000000     0.387970000000     0.233520000000    -0.233835   
O129     O      0.584300000000     0.358390000000     0.823920000000    -0.224532   
O130     O      0.669660000000     0.351120000000     0.882230000000    -0.224727   
O131     O      0.663340000000     0.437410000000     0.834090000000    -0.224464   
O132     O      0.652600000000     0.388180000000     0.757760000000    -0.233917   
O133     O      0.670540000000     0.352050000000     0.775650000000    -0.224749   
O134     O      0.705450000000     0.425030000000     0.837350000000    -0.233495   
O135     O      0.596670000000     0.316280000000     0.820590000000    -0.233436   
O136     O      0.633530000000     0.369050000000     0.900180000000    -0.233719   
O137     O      0.914110000000     0.186640000000     0.823990000000    -0.224456   
O138     O      0.828750000000     0.193850000000     0.882430000000    -0.224722   
O139     O      0.835090000000     0.107610000000     0.834160000000    -0.224424   
O140     O      0.845730000000     0.156830000000     0.757910000000    -0.233856   
O141     O      0.827810000000     0.192960000000     0.775850000000    -0.224829   
O142     O      0.792970000000     0.119980000000     0.837490000000    -0.233395   
O143     O      0.901730000000     0.228750000000     0.820740000000    -0.233484   
O144     O      0.864880000000     0.175910000000     0.900320000000    -0.233788   
O145     O      0.913880000000     0.773190000000     0.500830000000    -0.224401   
O146     O      0.828520000000     0.680550000000     0.442520000000    -0.224751   
O147     O      0.834840000000     0.773170000000     0.490670000000    -0.22441    
O148     O      0.845580000000     0.734680000000     0.567000000000    -0.233766   
O149     O      0.827640000000     0.680600000000     0.549100000000    -0.224657   
O150     O      0.792730000000     0.718670000000     0.487410000000    -0.233386   
O151     O      0.901510000000     0.718700000000     0.504160000000    -0.233391   
O152     O      0.864650000000     0.734610000000     0.424580000000    -0.233836   
O153     O      0.748310000000     0.686410000000     0.167490000000    -0.22446    
O154     O      0.840940000000     0.693690000000     0.109190000000    -0.224763   
O155     O      0.748320000000     0.607400000000     0.157320000000    -0.224365   
O156     O      0.786810000000     0.656620000000     0.233650000000    -0.23379    
O157     O      0.840890000000     0.692750000000     0.215770000000    -0.224715   
O158     O      0.802810000000     0.619770000000     0.154070000000    -0.233447   
O159     O      0.802790000000     0.728530000000     0.170820000000    -0.233415   
O160     O      0.786890000000     0.675760000000     0.091230000000    -0.233924   
O161     O      0.584070000000     0.771630000000     0.500760000000    -0.224531   
O162     O      0.669430000000     0.864190000000     0.442320000000    -0.224771   
O163     O      0.663090000000     0.771610000000     0.490590000000    -0.22445    
O164     O      0.652450000000     0.810190000000     0.566840000000    -0.233795   
O165     O      0.670370000000     0.864250000000     0.548900000000    -0.224732   
O166     O      0.705210000000     0.826090000000     0.487260000000    -0.233513   
O167     O      0.596460000000     0.826120000000     0.504010000000    -0.233438   
O168     O      0.633300000000     0.810120000000     0.424420000000    -0.233824   
O169     O      0.749880000000     0.937200000000     0.157270000000    -0.224393   
O170     O      0.657240000000     0.851840000000     0.215560000000    -0.224722   
O171     O      0.749860000000     0.858160000000     0.167430000000    -0.224526   
O172     O      0.711370000000     0.868890000000     0.091100000000    -0.23378    
O173     O      0.657300000000     0.850950000000     0.108990000000    -0.224751   
O174     O      0.695370000000     0.816050000000     0.170680000000    -0.233434   
O175     O      0.695390000000     0.924830000000     0.153930000000    -0.233393   
O176     O      0.711300000000     0.887970000000     0.233520000000    -0.233803   
O177     O      0.584300000000     0.858390000000     0.823920000000    -0.224525   
O178     O      0.669660000000     0.851120000000     0.882230000000    -0.22474    
O179     O      0.663340000000     0.937410000000     0.834090000000    -0.224434   
O180     O      0.652600000000     0.888190000000     0.757760000000    -0.233743   
O181     O      0.670540000000     0.852060000000     0.775650000000    -0.224856   
O182     O      0.705450000000     0.925030000000     0.837350000000    -0.23348    
O183     O      0.596670000000     0.816280000000     0.820590000000    -0.233456   
O184     O      0.633530000000     0.869050000000     0.900180000000    -0.233712   
O185     O      0.914110000000     0.686640000000     0.823990000000    -0.224458   
O186     O      0.828750000000     0.693850000000     0.882430000000    -0.224721   
O187     O      0.835090000000     0.607610000000     0.834160000000    -0.224454   
O188     O      0.845730000000     0.656830000000     0.757910000000    -0.233851   
O189     O      0.827810000000     0.692960000000     0.775850000000    -0.224823   
O190     O      0.792980000000     0.619980000000     0.837490000000    -0.233495   
O191     O      0.901730000000     0.728750000000     0.820740000000    -0.23349    
O192     O      0.864880000000     0.675910000000     0.900320000000    -0.233785   


