data_structure

_audit_creation_method RASPA-1.0
_audit_creation_date 2023-5-22
_audit_author_name 'Poobodin Mano'

_cell_length_a    43.959
_cell_length_b    44.0512
_cell_length_c    40.1102
_cell_angle_alpha 89.783
_cell_angle_beta  90.2096
_cell_angle_gamma 120.266
_cell_volume      67083.6

_symmetry_cell_setting          triclinic
_symmetry_space_group_name_Hall 'P 1'
_symmetry_space_group_name_H-M  'P 1'
_symmetry_Int_Tables_number     1

_symmetry_equiv_pos_as_xyz 'x,y,z'

loop_
_atom_site_label
_atom_site_type_symbol
_atom_site_fract_x
_atom_site_fract_y
_atom_site_fract_z
_atom_site_charge
C1       C      0.718980000000     0.851610000000     0.509210000000     0.276338   
C2       C      0.642990000000     0.910690000000     0.464540000000     0.277437   
C3       C      0.748990000000     0.961370000000     0.495470000000     0.276995   
C4       C      0.665370000000     0.847690000000     0.419570000000     0.276503   
C5       C      0.568020000000     0.980160000000     0.428960000000     0.279683   
C6       C      0.519470000000     0.052350000000     0.362190000000     0.278361   
C7       C      0.501730000000     0.009750000000     0.465160000000     0.280047   
C8       C      0.625320000000     0.087170000000     0.404380000000     0.278022   
C9       C      0.018670000000     0.289210000000     0.960690000000     0.279574   
C10      C      0.084280000000     0.218810000000     0.002680000000     0.276368   
C11      C      0.973470000000     0.183900000000     0.990500000000     0.277078   
C12      C      0.085380000000     0.271070000000     0.913350000000     0.276445   
C13      C      0.937280000000     0.354150000000     0.934450000000     0.27807    
C14      C      0.857990000000     0.404370000000     0.883230000000     0.277908   
C15      C      0.828130000000     0.294770000000     0.913390000000     0.277856   
C16      C      0.911370000000     0.416570000000     0.977510000000     0.278538   
C17      C      0.200400000000     0.082450000000     0.546000000000     0.277273   
C18      C      0.278730000000     0.029310000000     0.595970000000     0.278148   
C19      C      0.254450000000     0.092010000000     0.640090000000     0.278232   
C20      C      0.173360000000     0.973380000000     0.571370000000     0.27772    
C21      C      0.346480000000     0.950840000000     0.622190000000     0.27817    
C22      C      0.408190000000     0.877360000000     0.662910000000     0.276679   
C23      C      0.297150000000     0.842060000000     0.649720000000     0.276889   
C24      C      0.410670000000     0.930610000000     0.574500000000     0.276671   
C25      C      0.307230000000     0.245730000000     0.793350000000     0.278298   
C26      C      0.378680000000     0.187530000000     0.848180000000     0.277151   
C27      C      0.332540000000     0.179510000000     0.751760000000     0.277702   
C28      C      0.412180000000     0.295960000000     0.825900000000     0.277298   
C29      C      0.235880000000     0.319290000000     0.758590000000     0.278383   
C30      C      0.178400000000     0.390180000000     0.701810000000     0.277255   
C31      C      0.170860000000     0.346930000000     0.799770000000     0.277848   
C32      C      0.286900000000     0.423710000000     0.723830000000     0.277462   
C33      C      0.685030000000     0.623330000000     0.291920000000     0.277878   
C34      C      0.749180000000     0.551820000000     0.334370000000     0.276441   
C35      C      0.638060000000     0.516240000000     0.321730000000     0.277211   
C36      C      0.749970000000     0.603490000000     0.244820000000     0.276681   
C37      C      0.614410000000     0.698810000000     0.261790000000     0.278793   
C38      C      0.545080000000     0.758960000000     0.207160000000     0.277379   
C39      C      0.509430000000     0.649970000000     0.229260000000     0.277666   
C40      C      0.588550000000     0.764490000000     0.305310000000     0.278134   
C41      C      0.972590000000     0.579460000000     0.122240000000     0.277074   
C42      C      0.051250000000     0.527250000000     0.174970000000     0.276954   
C43      C      0.994070000000     0.512200000000     0.082970000000     0.279727   
C44      C      0.079220000000     0.634830000000     0.145570000000     0.277096   
C45      C      0.900550000000     0.652780000000     0.089450000000     0.278991   
C46      C      0.843290000000     0.723710000000     0.033050000000     0.277779   
C47      C      0.835190000000     0.680160000000     0.131420000000     0.278397   
C48      C      0.951820000000     0.758410000000     0.057460000000     0.27767    
C49      C      0.423550000000     0.881060000000     0.168900000000     0.276791   
C50      C      0.557170000000     0.957440000000     0.121460000000     0.277337   
C51      C      0.505110000000     0.852050000000     0.147220000000     0.27699    
C52      C      0.471690000000     0.936100000000     0.077390000000     0.277249   
C53      C      0.838600000000     0.088550000000     0.049480000000     0.276406   
C54      C      0.703700000000     0.027120000000     0.093130000000     0.278214   
C55      C      0.761360000000     0.977970000000     0.063710000000     0.277065   
C56      C      0.789680000000     0.091440000000     0.139540000000     0.276639   
C57      C      0.759310000000     0.184360000000     0.348050000000     0.277484   
C58      C      0.889310000000     0.247600000000     0.293930000000     0.27871    
C59      C      0.797640000000     0.177720000000     0.251250000000     0.27779    
C60      C      0.831380000000     0.293710000000     0.324480000000     0.277223   
C61      C      0.035890000000     0.328200000000     0.264130000000     0.276637   
C62      C      0.169820000000     0.401910000000     0.218100000000     0.276462   
C63      C      0.093940000000     0.435800000000     0.235720000000     0.277148   
C64      C      0.124040000000     0.349030000000     0.307550000000     0.276673   
C65      C      0.087490000000     0.213490000000     0.502590000000     0.275458   
C66      C      0.222900000000     0.280460000000     0.456020000000     0.276822   
C67      C      0.160030000000     0.175990000000     0.486130000000     0.276599   
C68      C      0.135790000000     0.267190000000     0.414510000000     0.276161   
C69      C      0.504780000000     0.415700000000     0.380510000000     0.276572   
C70      C      0.369960000000     0.348210000000     0.425800000000     0.277662   
C71      C      0.433780000000     0.304570000000     0.396840000000     0.277061   
C72      C      0.457510000000     0.418580000000     0.469470000000     0.276717   
C73      C      0.422340000000     0.517560000000     0.665120000000     0.276299   
C74      C      0.557300000000     0.579620000000     0.620210000000     0.277438   
C75      C      0.469570000000     0.511110000000     0.576920000000     0.276425   
C76      C      0.498940000000     0.627470000000     0.648900000000     0.276692   
C77      C      0.704410000000     0.652160000000     0.592420000000     0.278019   
C78      C      0.839440000000     0.724610000000     0.547930000000     0.276659   
C79      C      0.763150000000     0.758750000000     0.564380000000     0.27721    
C80      C      0.791600000000     0.671760000000     0.637300000000     0.276746   
C81      C      0.752550000000     0.541600000000     0.837280000000     0.27678    
C82      C      0.887520000000     0.610610000000     0.793640000000     0.278393   
C83      C      0.824240000000     0.502130000000     0.821600000000     0.277246   
C84      C      0.800710000000     0.591630000000     0.747390000000     0.27718    
C85      C      0.165490000000     0.744720000000     0.712760000000     0.277482   
C86      C      0.034750000000     0.687910000000     0.765630000000     0.276642   
C87      C      0.087670000000     0.634730000000     0.743290000000     0.277698   
C88      C      0.124310000000     0.755450000000     0.807190000000     0.278659   
C89      C      0.369940000000     0.986400000000     0.925910000000     0.28       
C90      C      0.493360000000     0.059080000000     0.864010000000     0.27859    
C91      C      0.419910000000     0.093480000000     0.903080000000     0.278189   
C92      C      0.464080000000     0.016430000000     0.966790000000     0.280603   
C93      C      0.088580000000     0.853950000000     0.002230000000     0.27597    
C94      C      0.223880000000     0.915270000000     0.957650000000     0.277138   
C95      C      0.136740000000     0.847930000000     0.914840000000     0.275939   
C96      C      0.166980000000     0.963920000000     0.988070000000     0.276337   
C97      C      0.508090000000     0.432120000000     0.881680000000     0.276766   
C98      C      0.571190000000     0.567420000000     0.924120000000     0.278064   
C99      C      0.505750000000     0.480550000000     0.970690000000     0.276885   
C100     C      0.619050000000     0.507870000000     0.895250000000     0.277275   
C101     C      0.643530000000     0.714180000000     0.950910000000     0.278313   
C102     C      0.721610000000     0.845070000000     0.001590000000     0.277603   
C103     C      0.750620000000     0.764520000000     0.974010000000     0.278425   
C104     C      0.669930000000     0.802590000000     0.906250000000     0.27897    
C105     C      0.733420000000     0.164660000000     0.850250000000     0.27844    
C106     C      0.682670000000     0.043770000000     0.784910000000     0.280122   
C107     C      0.626080000000     0.095040000000     0.806630000000     0.278395   
C108     C      0.749180000000     0.139660000000     0.746340000000     0.280631   
C109     C      0.610430000000     0.898180000000     0.751060000000     0.276986   
C110     C      0.539040000000     0.763050000000     0.705100000000     0.276029   
C111     C      0.591380000000     0.811380000000     0.794490000000     0.276343   
C112     C      0.505010000000     0.838750000000     0.719180000000     0.276961   
C113     C      0.842970000000     0.098740000000     0.550150000000     0.275974   
C114     C      0.905780000000     0.234860000000     0.591330000000     0.277136   
C115     C      0.839490000000     0.150380000000     0.637110000000     0.275735   
C116     C      0.953410000000     0.176610000000     0.561650000000     0.276244   
C117     C      0.050270000000     0.503320000000     0.683070000000     0.278609   
C118     C      0.977260000000     0.380950000000     0.620950000000     0.280374   
C119     C      0.008710000000     0.475100000000     0.579100000000     0.275782   
C120     C      0.084660000000     0.430360000000     0.643910000000     0.278351   
C121     C      0.949300000000     0.566080000000     0.421800000000     0.278159   
C122     C      0.873930000000     0.430510000000     0.378890000000     0.276146   
C123     C      0.929020000000     0.481550000000     0.467180000000     0.276469   
C124     C      0.843410000000     0.509890000000     0.391230000000     0.276482   
C125     C      0.082620000000     0.840050000000     0.510780000000     0.277114   
C126     C      0.023990000000     0.711290000000     0.454730000000     0.277791   
C127     C      0.974340000000     0.765060000000     0.489090000000     0.276952   
C128     C      0.089860000000     0.802550000000     0.412970000000     0.277344   
C129     C      0.400550000000     0.174120000000     0.334050000000     0.277952   
C130     C      0.320260000000     0.045820000000     0.280610000000     0.278867   
C131     C      0.348270000000     0.135750000000     0.238480000000     0.279343   
C132     C      0.428410000000     0.093460000000     0.301430000000     0.278312   
C133     C      0.176720000000     0.768910000000     0.201390000000     0.277705   
C134     C      0.240120000000     0.899460000000     0.252670000000     0.279483   
C135     C      0.173080000000     0.809490000000     0.298830000000     0.278306   
C136     C      0.287510000000     0.841160000000     0.224540000000     0.27783    
C137     C      0.210090000000     0.100030000000     0.044770000000     0.27535    
C138     C      0.282580000000     0.235310000000     0.091670000000     0.276064   
C139     C      0.178970000000     0.177390000000     0.059020000000     0.275905   
C140     C      0.266810000000     0.148330000000     0.131560000000     0.27518    
C141     C      0.413520000000     0.515000000000     0.171400000000     0.27661    
C142     C      0.350730000000     0.380830000000     0.124960000000     0.277511   
C143     C      0.303190000000     0.439150000000     0.157800000000     0.277064   
C144     C      0.417220000000     0.468840000000     0.081850000000     0.276435   
C145     C      0.319140000000     0.298170000000     0.074680000000    -0.00712183 
C146     C      0.306340000000     0.272580000000     0.099800000000    -0.0503568  
C147     C      0.312630000000     0.283130000000     0.133430000000    -0.0061401  
C148     C      0.329490000000     0.318710000000     0.141850000000    -0.00651841 
C149     C      0.339580000000     0.344140000000     0.116750000000    -0.0511632  
C150     C      0.335320000000     0.333700000000     0.083110000000    -0.00569235 
C151     C      0.340550000000     0.145530000000     0.178130000000    -0.00687198 
C152     C      0.328540000000     0.140740000000     0.211140000000    -0.0511877  
C153     C      0.295850000000     0.138120000000     0.217730000000    -0.00718017 
C154     C      0.275480000000     0.139950000000     0.191870000000    -0.00829331 
C155     C      0.287400000000     0.144590000000     0.158840000000    -0.0497188  
C156     C      0.320220000000     0.147510000000     0.152240000000    -0.00826934 
C157     C      0.278700000000     0.984680000000     0.299790000000    -0.00706958 
C158     C      0.293150000000     0.009120000000     0.273760000000    -0.051285   
C159     C      0.285100000000     0.997380000000     0.240560000000    -0.0063655  
C160     C      0.265230000000     0.961510000000     0.233450000000    -0.00656761 
C161     C      0.253620000000     0.936930000000     0.259470000000    -0.052142   
C162     C      0.259290000000     0.948820000000     0.292690000000    -0.0057914  
C163     C      0.161220000000     0.802610000000     0.360280000000    -0.00730741 
C164     C      0.151260000000     0.806520000000     0.328020000000    -0.0507877  
C165     C      0.121530000000     0.810390000000     0.323990000000    -0.00748385 
C166     C      0.102120000000     0.810220000000     0.351590000000    -0.00777294 
C167     C      0.112030000000     0.806190000000     0.383840000000    -0.0502077  
C168     C      0.141830000000     0.802460000000     0.387890000000    -0.00779523 
C169     C      0.988490000000     0.628340000000     0.404170000000    -0.0034057  
C170     C      0.975240000000     0.602880000000     0.429390000000    -0.0526814  
C171     C      0.983000000000     0.613400000000     0.462920000000    -0.00227562 
C172     C      0.001510000000     0.648970000000     0.471280000000    -0.00964111 
C173     C      0.011890000000     0.674470000000     0.446220000000    -0.0498305  
C174     C      0.006430000000     0.663960000000     0.412560000000    -0.00876042 
C175     C      0.982110000000     0.481990000000     0.490720000000    -0.00453445 
C176     C      0.949400000000     0.479850000000     0.495830000000    -0.0515587  
C177     C      0.937530000000     0.478230000000     0.528550000000    -0.00657923 
C178     C      0.957670000000     0.478250000000     0.555560000000    -0.00935743 
C179     C      0.990090000000     0.479740000000     0.550490000000    -0.0457841  
C180     C      0.002220000000     0.481860000000     0.517780000000    -0.0124288  
C181     C      0.926880000000     0.296520000000     0.572720000000    -0.00680426 
C182     C      0.917050000000     0.271780000000     0.598450000000    -0.0509768  
C183     C      0.922040000000     0.283150000000     0.631800000000    -0.00606045 
C184     C      0.939110000000     0.318890000000     0.639330000000    -0.00646287 
C185     C      0.951950000000     0.343810000000     0.613590000000    -0.0516023  
C186     C      0.944500000000     0.332370000000     0.580250000000    -0.00592574 
C187     C      0.825610000000     0.145100000000     0.698110000000    -0.00844596 
C188     C      0.816610000000     0.148020000000     0.665150000000    -0.0498198  
C189     C      0.786250000000     0.150360000000     0.659220000000    -0.00830874 
C190     C      0.764950000000     0.149080000000     0.685640000000    -0.00672978 
C191     C      0.773640000000     0.145540000000     0.718560000000    -0.0513594  
C192     C      0.804400000000     0.143930000000     0.724510000000    -0.00690264 
C193     C      0.658230000000     0.981130000000     0.801600000000    -0.00669848 
C194     C      0.670750000000     0.006860000000     0.776590000000    -0.0515959  
C195     C      0.667740000000     0.996490000000     0.742970000000    -0.00621072 
C196     C      0.650280000000     0.960880000000     0.734430000000    -0.00707865 
C197     C      0.635130000000     0.935220000000     0.759390000000    -0.0509128  
C198     C      0.640320000000     0.945600000000     0.793050000000    -0.00631921 
C199     C      0.617510000000     0.803170000000     0.882620000000    -0.00747413 
C200     C      0.650710000000     0.806370000000     0.877700000000    -0.0509943  
C201     C      0.663900000000     0.810650000000     0.845180000000    -0.00718652 
C202     C      0.644280000000     0.811650000000     0.818130000000    -0.00805362 
C203     C      0.611020000000     0.808280000000     0.823050000000    -0.0502744  
C204     C      0.597860000000     0.804070000000     0.855580000000    -0.00806684 
C205     C      0.592050000000     0.628730000000     0.904580000000    -0.00674607 
C206     C      0.582670000000     0.604520000000     0.930740000000    -0.0514813  
C207     C      0.588340000000     0.616630000000     0.963880000000    -0.00605826 
C208     C      0.605560000000     0.652560000000     0.970730000000    -0.00715134 
C209     C      0.617910000000     0.676900000000     0.944500000000    -0.051132   
C210     C      0.609840000000     0.664720000000     0.911420000000    -0.00619702 
C211     C      0.453130000000     0.480510000000     0.994200000000    -0.00781208 
C212     C      0.482810000000     0.476790000000     0.999130000000    -0.0508597  
C213     C      0.491150000000     0.471280000000     0.031540000000    -0.00769841 
C214     C      0.470180000000     0.469450000000     0.058440000000    -0.00799249 
C215     C      0.440440000000     0.473090000000     0.053500000000    -0.0505821  
C216     C      0.432160000000     0.478690000000     0.021100000000    -0.00793045 
C217     C      0.169110000000     0.001990000000     0.034450000000    -0.005866   
C218     C      0.175550000000     0.998770000000     0.000790000000    -0.0504582  
C219     C      0.192550000000     0.029180000000     0.980900000000    -0.00626122 
C220     C      0.204020000000     0.062420000000     0.994950000000    -0.00774888 
C221     C      0.197830000000     0.065490000000     0.028830000000    -0.0487474  
C222     C      0.179740000000     0.034840000000     0.048190000000    -0.00766528 
C223     C      0.531280000000     0.041240000000     0.833600000000    -0.00637941 
C224     C      0.523920000000     0.067630000000     0.842550000000    -0.0501894  
C225     C      0.548660000000     0.102860000000     0.835000000000    -0.00586473 
C226     C      0.581030000000     0.111710000000     0.820450000000    -0.00604863 
C227     C      0.589510000000     0.085540000000     0.814190000000    -0.0505662  
C228     C      0.564020000000     0.050180000000     0.820020000000    -0.00516585 
C229     C      0.307390000000     0.948740000000     0.908270000000    -0.00663684 
C230     C      0.332760000000     0.961300000000     0.933650000000    -0.0518133  
C231     C      0.321780000000     0.953740000000     0.967120000000    -0.00596069 
C232     C      0.285980000000     0.936240000000     0.975160000000    -0.00713555 
C233     C      0.260790000000     0.926600000000     0.949830000000    -0.0509751  
C234     C      0.271690000000     0.931760000000     0.916310000000    -0.00638933 
C235     C      0.103310000000     0.589090000000     0.729310000000    -0.00568891 
C236     C      0.077540000000     0.598280000000     0.735020000000    -0.0506542  
C237     C      0.042150000000     0.573900000000     0.727750000000    -0.00475661 
C238     C      0.032810000000     0.541450000000     0.713440000000    -0.00652178 
C239     C      0.058910000000     0.533400000000     0.705110000000    -0.0503143  
C240     C      0.094130000000     0.557060000000     0.713970000000    -0.00580608 
C241     C      0.125670000000     0.809480000000     0.828340000000    -0.0074313  
C242     C      0.128910000000     0.779760000000     0.834620000000    -0.0509623  
C243     C      0.134260000000     0.772470000000     0.867480000000    -0.00719689 
C244     C      0.136220000000     0.794370000000     0.893530000000    -0.00821499 
C245     C      0.132830000000     0.824010000000     0.887270000000    -0.0501342  
C246     C      0.127600000000     0.831370000000     0.854390000000    -0.00815282 
C247     C      0.716560000000     0.538750000000     0.887400000000    -0.00739474 
C248     C      0.718670000000     0.532000000000     0.853470000000    -0.0495042  
C249     C      0.687670000000     0.515860000000     0.834330000000    -0.00741357 
C250     C      0.655460000000     0.507560000000     0.848370000000    -0.00595766 
C251     C      0.653200000000     0.514470000000     0.882110000000    -0.050792   
C252     C      0.683910000000     0.529620000000     0.901750000000    -0.00623716 
C253     C      0.949260000000     0.651180000000     0.812750000000    -0.00715293 
C254     C      0.924780000000     0.636130000000     0.786770000000    -0.0513811  
C255     C      0.936660000000     0.642790000000     0.753550000000    -0.00589936 
C256     C      0.972590000000     0.662180000000     0.746420000000    -0.00742335 
C257     C      0.997220000000     0.674670000000     0.772440000000    -0.049852   
C258     C      0.985270000000     0.670060000000     0.805630000000    -0.00463776 
C259     C      0.876350000000     0.731830000000     0.497180000000    -0.00698866 
C260     C      0.873610000000     0.735590000000     0.531680000000    -0.0494483  
C261     C      0.904250000000     0.750270000000     0.551310000000    -0.00698527 
C262     C      0.936790000000     0.760150000000     0.537080000000    -0.00602893 
C263     C      0.939730000000     0.756440000000     0.502710000000    -0.0500177  
C264     C      0.909350000000     0.742670000000     0.482680000000    -0.00621393 
C265     C      0.790140000000     0.618060000000     0.660050000000    -0.00795055 
C266     C      0.795050000000     0.651840000000     0.665370000000    -0.0504655  
C267     C      0.801240000000     0.665280000000     0.697890000000    -0.00767356 
C268     C      0.802450000000     0.645380000000     0.724520000000    -0.00783438 
C269     C      0.797500000000     0.611590000000     0.719210000000    -0.0506523  
C270     C      0.791350000000     0.598150000000     0.686690000000    -0.0076609  
C271     C      0.619050000000     0.601890000000     0.639340000000    -0.00688639 
C272     C      0.594550000000     0.591700000000     0.613320000000    -0.0510964  
C273     C      0.606450000000     0.596950000000     0.580090000000    -0.00603161 
C274     C      0.642430000000     0.614310000000     0.573000000000    -0.00668909 
C275     C      0.666980000000     0.627240000000     0.599070000000    -0.0514206  
C276     C      0.655040000000     0.619850000000     0.632260000000    -0.00571007 
C277     C      0.523760000000     0.692620000000     0.641530000000    -0.00613776 
C278     C      0.506750000000     0.662170000000     0.661360000000    -0.0504337  
C279     C      0.499590000000     0.665210000000     0.694840000000    -0.00582665 
C280     C      0.509540000000     0.697940000000     0.708480000000    -0.00746021 
C281     C      0.527630000000     0.728660000000     0.689220000000    -0.0490637  
C282     C      0.534540000000     0.725770000000     0.655500000000    -0.00746965 
C283     C      0.456670000000     0.471420000000     0.490830000000    -0.00779988 
C284     C      0.461430000000     0.442580000000     0.496960000000    -0.0505359  
C285     C      0.468180000000     0.436130000000     0.529640000000    -0.00774028 
C286     C      0.470160000000     0.458090000000     0.555640000000    -0.0079249  
C287     C      0.465450000000     0.486960000000     0.549510000000    -0.0503695  
C288     C      0.458670000000     0.493390000000     0.516820000000    -0.00788563 
C289     C      0.408380000000     0.239110000000     0.400800000000    -0.00563343 
C290     C      0.429090000000     0.271150000000     0.384020000000    -0.0506644  
C291     C      0.442300000000     0.270940000000     0.352340000000    -0.00499453 
C292     C      0.434190000000     0.239380000000     0.337110000000    -0.00756773 
C293     C      0.411890000000     0.207060000000     0.352830000000    -0.0493037  
C294     C      0.399470000000     0.207160000000     0.385110000000    -0.00725411 
C295     C      0.051360000000     0.209490000000     0.553080000000    -0.00748519 
C296     C      0.053500000000     0.203150000000     0.519040000000    -0.0487131  
C297     C      0.022400000000     0.186630000000     0.500050000000    -0.00945384 
C298     C      0.990070000000     0.177550000000     0.514340000000    -0.0044934  
C299     C      0.987760000000     0.184020000000     0.548200000000    -0.0488258  
C300     C      0.018600000000     0.199580000000     0.567680000000    -0.00823266 
C301     C      0.285670000000     0.315550000000     0.474260000000    -0.00706564 
C302     C      0.260620000000     0.303260000000     0.448610000000    -0.0506979  
C303     C      0.272020000000     0.309560000000     0.415220000000    -0.00616003 
C304     C      0.307870000000     0.326210000000     0.407570000000    -0.00672984 
C305     C      0.332770000000     0.336120000000     0.433210000000    -0.0510863  
C306     C      0.321470000000     0.331530000000     0.466610000000    -0.00603128 
C307     C      0.235010000000     0.429860000000     0.219880000000    -0.00739069 
C308     C      0.203690000000     0.412800000000     0.201260000000    -0.0494297  
C309     C      0.205430000000     0.406110000000     0.167240000000    -0.00730276 
C310     C      0.238040000000     0.416090000000     0.152310000000    -0.00617303 
C311     C      0.269080000000     0.432030000000     0.171470000000    -0.0505884  
C312     C      0.267200000000     0.438990000000     0.205270000000    -0.0058137  
C313     C      0.135520000000     0.341900000000     0.367570000000    -0.00760944 
C314     C      0.128240000000     0.328830000000     0.334910000000    -0.0505488  
C315     C      0.122990000000     0.295070000000     0.328700000000    -0.00783252 
C316     C      0.124860000000     0.274770000000     0.354580000000    -0.00792102 
C317     C      0.132100000000     0.287800000000     0.387250000000    -0.0502815  
C318     C      0.137470000000     0.321610000000     0.393480000000    -0.00797682 
C319     C      0.951870000000     0.274390000000     0.312270000000    -0.00720909 
C320     C      0.926890000000     0.261910000000     0.286560000000    -0.051341   
C321     C      0.938350000000     0.267310000000     0.253190000000    -0.00574694 
C322     C      0.974200000000     0.286900000000     0.245630000000    -0.00688447 
C323     C      0.998980000000     0.301900000000     0.271360000000    -0.0502083  
C324     C      0.987650000000     0.294530000000     0.304710000000    -0.00410248 
C325     C      0.855310000000     0.358530000000     0.316070000000    -0.00602237 
C326     C      0.839670000000     0.328620000000     0.336690000000    -0.0506296  
C327     C      0.834490000000     0.332480000000     0.370540000000    -0.00564459 
C328     C      0.845000000000     0.365530000000     0.383750000000    -0.00744286 
C329     C      0.861780000000     0.395720000000     0.363620000000    -0.0491184  
C330     C      0.866740000000     0.391980000000     0.329560000000    -0.00736266 
C331     C      0.788500000000     0.163260000000     0.190300000000    -0.00736511 
C332     C      0.793540000000     0.154690000000     0.222780000000    -0.0505786  
C333     C      0.797600000000     0.125240000000     0.227660000000    -0.00749727 
C334     C      0.796940000000     0.104980000000     0.200650000000    -0.00789955 
C335     C      0.792210000000     0.113710000000     0.168140000000    -0.0502305  
C336     C      0.787840000000     0.142980000000     0.163270000000    -0.00790843 
C337     C      0.763740000000     0.942440000000     0.017270000000    -0.00543871 
C338     C      0.754000000000     0.943770000000     0.050230000000    -0.050499   
C339     C      0.734730000000     0.912250000000     0.068220000000    -0.00586452 
C340     C      0.724130000000     0.879780000000     0.052780000000    -0.00728994 
C341     C      0.733470000000     0.878610000000     0.019470000000    -0.0492574  
C342     C      0.753980000000     0.910370000000     0.002230000000    -0.00741422 
C343     C      0.358310000000     0.851320000000     0.165520000000    -0.00763863 
C344     C      0.389040000000     0.869300000000     0.184910000000    -0.0491072  
C345     C      0.385990000000     0.876140000000     0.218600000000    -0.00754859 
C346     C      0.352690000000     0.865460000000     0.232400000000    -0.00582207 
C347     C      0.322290000000     0.848680000000     0.212390000000    -0.0509249  
C348     C      0.325480000000     0.841540000000     0.178970000000    -0.00542347 
C349     C      0.467820000000     0.965520000000     0.989500000000    -0.00698337 
C350     C      0.468870000000     0.997580000000     0.995080000000    -0.0513272  
C351     C      0.470780000000     0.009170000000     0.027960000000    -0.00676213 
C352     C      0.471160000000     0.988880000000     0.054690000000    -0.00804157 
C353     C      0.469550000000     0.956560000000     0.049080000000    -0.0501083  
C354     C      0.468110000000     0.945220000000     0.016190000000    -0.00804604 
C355     C      0.606350000000     0.989990000000     0.081440000000    -0.00598178 
C356     C      0.594530000000     0.982470000000     0.114660000000    -0.0508925  
C357     C      0.619200000000     0.994730000000     0.140630000000    -0.00714341 
C358     C      0.655100000000     0.011300000000     0.133390000000    -0.00579924 
C359     C      0.666800000000     0.016390000000     0.100110000000    -0.0515579  
C360     C      0.642300000000     0.007150000000     0.074200000000    -0.00649931 
C361     C      0.833920000000     0.768730000000     0.004140000000    -0.00591629 
C362     C      0.821500000000     0.733350000000     0.012540000000    -0.0497896  
C363     C      0.786800000000     0.707930000000     0.004320000000    -0.00637397 
C364     C      0.764130000000     0.718060000000     0.990210000000    -0.00455823 
C365     C      0.776170000000     0.753580000000     0.982990000000    -0.0509857  
C366     C      0.811550000000     0.778700000000     0.988940000000    -0.00542262 
C367     C      0.016770000000     0.800260000000     0.065560000000    -0.00768545 
C368     C      0.986830000000     0.784920000000     0.044890000000    -0.0496088  
C369     C      0.990650000000     0.793220000000     0.010810000000    -0.00390491 
C370     C      0.023660000000     0.816160000000     0.997440000000    -0.00934116 
C371     C      0.053870000000     0.830760000000     0.017670000000    -0.0489353  
C372     C      0.050220000000     0.822700000000     0.051920000000    -0.00727347 
C373     C      0.086620000000     0.497580000000     0.175930000000    -0.00781184 
C374     C      0.064380000000     0.506610000000     0.192900000000    -0.0491715  
C375     C      0.054330000000     0.494580000000     0.225820000000    -0.00761087 
C376     C      0.065650000000     0.473100000000     0.240990000000    -0.00575873 
C377     C      0.086450000000     0.462870000000     0.223100000000    -0.0507388  
C378     C      0.097170000000     0.475730000000     0.190690000000    -0.00525316 
C379     C      0.934630000000     0.603700000000     0.139690000000    -0.00744723 
C380     C      0.947360000000     0.591190000000     0.114460000000    -0.0504629  
C381     C      0.939740000000     0.594440000000     0.080940000000    -0.00642826 
C382     C      0.921980000000     0.612260000000     0.072660000000    -0.00636241 
C383     C      0.912110000000     0.627560000000     0.097770000000    -0.0519216  
C384     C      0.917380000000     0.622010000000     0.131380000000    -0.00583327 
C385     C      0.141040000000     0.680790000000     0.159030000000    -0.00573316 
C386     C      0.105790000000     0.671320000000     0.153880000000    -0.0503276  
C387     C      0.095000000000     0.695650000000     0.161210000000    -0.00498253 
C388     C      0.118850000000     0.728570000000     0.174520000000    -0.00624875 
C389     C      0.153500000000     0.737130000000     0.181860000000    -0.0498696  
C390     C      0.164600000000     0.713260000000     0.173460000000    -0.0057941  
C391     C      0.500380000000     0.768760000000     0.177950000000    -0.00597742 
C392     C      0.535670000000     0.781110000000     0.186940000000    -0.049614   
C393     C      0.561240000000     0.815890000000     0.179320000000    -0.00655479 
C394     C      0.551300000000     0.838610000000     0.165040000000    -0.0047076  
C395     C      0.515880000000     0.826580000000     0.157020000000    -0.0502801  
C396     C      0.490630000000     0.791210000000     0.162570000000    -0.0057006  
C397     C      0.474980000000     0.612370000000     0.181850000000    -0.00581506 
C398     C      0.482880000000     0.615380000000     0.216010000000    -0.050744   
C399     C      0.467170000000     0.585050000000     0.236080000000    -0.00609056 
C400     C      0.444690000000     0.552020000000     0.221780000000    -0.00713293 
C401     C      0.436990000000     0.549190000000     0.187470000000    -0.0496124  
C402     C      0.452010000000     0.579780000000     0.167840000000    -0.00715591 
C403     C      0.780740000000     0.545430000000     0.384270000000    -0.00715484 
C404     C      0.772420000000     0.540560000000     0.350080000000    -0.0494618  
C405     C      0.786370000000     0.524250000000     0.330330000000    -0.00713077 
C406     C      0.808830000000     0.513850000000     0.344110000000    -0.00620876 
C407     C      0.817350000000     0.518740000000     0.378150000000    -0.0500773  
C408     C      0.802750000000     0.534180000000     0.398320000000    -0.00647445 
C409     C      0.761890000000     0.609550000000     0.183460000000    -0.00801542 
C410     C      0.771780000000     0.623090000000     0.215790000000    -0.0503745  
C411     C      0.801860000000     0.656530000000     0.220060000000    -0.00800865 
C412     C      0.821920000000     0.675790000000     0.192600000000    -0.00726598 
C413     C      0.812260000000     0.662010000000     0.160320000000    -0.0508602  
C414     C      0.781880000000     0.628810000000     0.156040000000    -0.00740318 
C415     C      0.662590000000     0.662520000000     0.310490000000    -0.00658231 
C416     C      0.673520000000     0.648800000000     0.284810000000    -0.0511167  
C417     C      0.669430000000     0.656170000000     0.251440000000    -0.00561075 
C418     C      0.652530000000     0.674970000000     0.243800000000    -0.00660266 
C419     C      0.638840000000     0.686040000000     0.269410000000    -0.0513785  
C420     C      0.645030000000     0.680730000000     0.302830000000    -0.0058581  
C421     C      0.601770000000     0.479700000000     0.369040000000    -0.00605004 
C422     C      0.603960000000     0.488540000000     0.335140000000    -0.050547   
C423     C      0.573220000000     0.472480000000     0.315550000000    -0.00625501 
C424     C      0.540620000000     0.448760000000     0.330070000000    -0.00734255 
C425     C      0.538590000000     0.440220000000     0.364140000000    -0.0494388  
C426     C      0.569620000000     0.455600000000     0.383260000000    -0.0074352  
C427     C      0.168300000000     0.435420000000     0.674380000000    -0.00629831 
C428     C      0.156480000000     0.399900000000     0.681570000000    -0.0498053  
C429     C      0.122210000000     0.374250000000     0.672300000000    -0.00671619 
C430     C      0.099300000000     0.384200000000     0.658410000000    -0.00501805 
C431     C      0.110650000000     0.419830000000     0.652540000000    -0.0510574  
C432     C      0.145700000000     0.445270000000     0.659480000000    -0.00585285 
C433     C      0.324720000000     0.456590000000     0.675910000000    -0.00590144 
C434     C      0.321650000000     0.449650000000     0.710270000000    -0.0506378  
C435     C      0.352040000000     0.465840000000     0.730330000000    -0.00617158 
C436     C      0.385160000000     0.487840000000     0.715860000000    -0.0071799  
C437     C      0.388040000000     0.494600000000     0.681350000000    -0.0494866  
C438     C      0.357400000000     0.479090000000     0.661710000000    -0.00718189 
C439     C      0.424430000000     0.177240000000     0.874340000000    -0.00616809 
C440     C      0.388730000000     0.165470000000     0.867720000000    -0.0496986  
C441     C      0.363200000000     0.131110000000     0.876720000000    -0.00657939 
C442     C      0.373410000000     0.108110000000     0.889790000000    -0.00501107 
C443     C      0.409190000000     0.119450000000     0.895130000000    -0.0507282  
C444     C      0.434550000000     0.154540000000     0.888460000000    -0.00585272 
C445     C      0.257890000000     0.279080000000     0.742530000000    -0.00671785 
C446     C      0.247370000000     0.294120000000     0.767340000000    -0.051353   
C447     C      0.251980000000     0.288430000000     0.801090000000    -0.00598155 
C448     C      0.269090000000     0.270080000000     0.809870000000    -0.00667974 
C449     C      0.282400000000     0.257780000000     0.784990000000    -0.0514511  
C450     C      0.275580000000     0.261310000000     0.751290000000    -0.00576258 
C451     C      0.454450000000     0.360760000000     0.818080000000    -0.00615777 
C452     C      0.438530000000     0.330870000000     0.838710000000    -0.0506106  
C453     C      0.446190000000     0.334610000000     0.872940000000    -0.00600338 
C454     C      0.469160000000     0.367480000000     0.886440000000    -0.00709866 
C455     C      0.484440000000     0.397630000000     0.866200000000    -0.0497131  
C456     C      0.476940000000     0.394080000000     0.831840000000    -0.00714748 
C457     C      0.462980000000     0.861260000000     0.726560000000    -0.0063329  
C458     C      0.478020000000     0.846320000000     0.706320000000    -0.0506608  
C459     C      0.469100000000     0.840860000000     0.672380000000    -0.00596842 
C460     C      0.445910000000     0.850380000000     0.658740000000    -0.00730954 
C461     C      0.431650000000     0.866370000000     0.678540000000    -0.0496062  
C462     C      0.440250000000     0.871640000000     0.712650000000    -0.00737413 
C463     C      0.262670000000     0.801960000000     0.695690000000    -0.00539446 
C464     C      0.263280000000     0.814060000000     0.663190000000    -0.0505484  
C465     C      0.231350000000     0.801630000000     0.645790000000    -0.00586442 
C466     C      0.199160000000     0.778620000000     0.661480000000    -0.00744128 
C467     C      0.198710000000     0.767190000000     0.694400000000    -0.049099   
C468     C      0.230910000000     0.778570000000     0.710940000000    -0.00770495 
C469     C      0.186960000000     0.137610000000     0.480530000000    -0.00589475 
C470     C      0.166670000000     0.148330000000     0.498610000000    -0.0505858  
C471     C      0.155990000000     0.135540000000     0.531050000000    -0.00523137 
C472     C      0.166040000000     0.113200000000     0.545620000000    -0.0075626  
C473     C      0.187780000000     0.103690000000     0.528420000000    -0.0493817  
C474     C      0.197820000000     0.115700000000     0.495510000000    -0.00733566 
C475     C      0.315540000000     0.004820000000     0.576050000000    -0.00704863 
C476     C      0.303620000000     0.016870000000     0.602350000000    -0.0511054  
C477     C      0.311010000000     0.011750000000     0.635430000000    -0.00605647 
C478     C      0.327580000000     0.992420000000     0.642140000000    -0.00642843 
C479     C      0.336360000000     0.977470000000     0.615850000000    -0.0516259  
C480     C      0.331520000000     0.984980000000     0.582760000000    -0.00582512 
C481     C      0.160800000000     0.913890000000     0.554650000000    -0.0046329  
C482     C      0.148270000000     0.936860000000     0.561830000000    -0.0508156  
C483     C      0.112940000000     0.926200000000     0.555290000000    -0.00554903 
C484     C      0.091090000000     0.893950000000     0.539650000000    -0.00613067 
C485     C      0.104000000000     0.871500000000     0.531370000000    -0.0498285  
C486     C      0.138640000000     0.881170000000     0.540090000000    -0.00648937 
C487     C      0.261340000000     0.105090000000     0.701210000000    -0.0075142  
C488     C      0.274050000000     0.114780000000     0.668600000000    -0.0505414  
C489     C      0.306990000000     0.145340000000     0.663580000000    -0.0076612  
C490     C      0.326660000000     0.165910000000     0.690620000000    -0.00740191 
C491     C      0.313790000000     0.156340000000     0.723210000000    -0.0505796  
C492     C      0.280980000000     0.125640000000     0.728210000000    -0.00760299 
C493     C      0.825670000000     0.437180000000     0.881590000000    -0.00758519 
C494     C      0.846790000000     0.426460000000     0.865020000000    -0.0493007  
C495     C      0.857990000000     0.438510000000     0.832300000000    -0.00735798 
C496     C      0.848950000000     0.461660000000     0.816940000000    -0.00574806 
C497     C      0.829340000000     0.473580000000     0.834460000000    -0.0507661  
C498     C      0.817420000000     0.460720000000     0.866660000000    -0.00520953 
C499     C      0.812710000000     0.234420000000     0.896220000000    -0.00486093 
C500     C      0.801670000000     0.258370000000     0.904420000000    -0.0502833  
C501     C      0.766470000000     0.248940000000     0.898900000000    -0.00572093 
C502     C      0.743450000000     0.217270000000     0.882860000000    -0.00570129 
C503     C      0.755020000000     0.194100000000     0.873090000000    -0.0498863  
C504     C      0.789400000000     0.202270000000     0.881210000000    -0.00626569 
C505     C      0.920820000000     0.433670000000     0.037920000000    -0.00786051 
C506     C      0.931680000000     0.441390000000     0.004590000000    -0.0500405  
C507     C      0.963690000000     0.472230000000     0.997330000000    -0.0086404  
C508     C      0.984400000000     0.494840000000     0.022800000000    -0.00491367 
C509     C      0.973550000000     0.487160000000     0.056120000000    -0.0515953  
C510     C      0.941520000000     0.456350000000     0.063420000000    -0.00703276 
C511     C      0.138290000000     0.201560000000     0.066360000000    -0.00658333 
C512     C      0.152550000000     0.185800000000     0.046190000000    -0.0500452  
C513     C      0.143530000000     0.180400000000     0.012270000000    -0.00616645 
C514     C      0.120960000000     0.190700000000     0.998600000000    -0.0071184  
C515     C      0.107430000000     0.207430000000     0.018320000000    -0.0496972  
C516     C      0.116190000000     0.212730000000     0.052400000000    -0.00709672 
C517     C      0.097510000000     0.276720000000     0.852060000000    -0.00799244 
C518     C      0.107250000000     0.290550000000     0.884300000000    -0.0503543  
C519     C      0.137270000000     0.324050000000     0.888440000000    -0.00791411 
C520     C      0.157440000000     0.343080000000     0.860930000000    -0.0074556  
C521     C      0.147910000000     0.329010000000     0.828730000000    -0.0506434  
C522     C      0.117580000000     0.295750000000     0.824590000000    -0.00760741 
C523     C      0.993440000000     0.325500000000     0.980630000000    -0.00270616 
C524     C      0.004940000000     0.313010000000     0.954340000000    -0.0570106  
C525     C      0.998660000000     0.319210000000     0.921270000000     0.000171055
C526     C      0.978850000000     0.335250000000     0.914560000000    -0.0095105  
C527     C      0.964530000000     0.344760000000     0.940880000000    -0.0491853  
C528     C      0.973090000000     0.341020000000     0.973940000000    -0.00818667 
C529     C      0.908120000000     0.142870000000     0.984480000000    -0.00633048 
C530     C      0.938980000000     0.156990000000     0.003850000000    -0.0504333  
C531     C      0.936520000000     0.147490000000     0.037580000000    -0.00581353 
C532     C      0.903950000000     0.124730000000     0.051900000000    -0.00727803 
C533     C      0.872850000000     0.111460000000     0.033050000000    -0.0493422  
C534     C      0.875180000000     0.120550000000     0.999110000000    -0.00740671 
C535     C      0.463960000000     0.036250000000     0.331480000000    -0.00622402 
C536     C      0.498770000000     0.061520000000     0.339520000000    -0.0499716  
C537     C      0.511640000000     0.096750000000     0.330190000000    -0.0054633  
C538     C      0.489460000000     0.106860000000     0.314790000000    -0.00566777 
C539     C      0.453850000000     0.082040000000     0.309510000000    -0.0505351  
C540     C      0.441510000000     0.046540000000     0.317110000000    -0.00473123 
C541     C      0.687020000000     0.103850000000     0.390590000000    -0.00509998 
C542     C      0.661860000000     0.114000000000     0.396250000000    -0.0506071  
C543     C      0.670610000000     0.148730000000     0.389500000000    -0.00594819 
C544     C      0.703080000000     0.172190000000     0.374970000000    -0.00602902 
C545     C      0.727670000000     0.161580000000     0.368000000000    -0.049872   
C546     C      0.719920000000     0.127640000000     0.377100000000    -0.00641859 
C547     C      0.485660000000     0.003660000000     0.525670000000    -0.00682602 
C548     C      0.477000000000     0.991310000000     0.492850000000    -0.0512679  
C549     C      0.446050000000     0.958930000000     0.487010000000    -0.00695932 
C550     C      0.424620000000     0.938970000000     0.513480000000    -0.00812615 
C551     C      0.433630000000     0.951010000000     0.546350000000    -0.0502135  
C552     C      0.464170000000     0.983730000000     0.552140000000    -0.00809262 
C553     C      0.750640000000     0.818260000000     0.505440000000    -0.00738367 
C554     C      0.731630000000     0.829480000000     0.524850000000    -0.0491244  
C555     C      0.724960000000     0.819080000000     0.558500000000    -0.00739496 
C556     C      0.736770000000     0.797430000000     0.572240000000    -0.00609337 
C557     C      0.754630000000     0.785300000000     0.552250000000    -0.0505252  
C558     C      0.761640000000     0.796160000000     0.518860000000    -0.00569448 
C559     C      0.602210000000     0.932080000000     0.480890000000    -0.0067003  
C560     C      0.616950000000     0.921140000000     0.456160000000    -0.0514245  
C561     C      0.610430000000     0.924690000000     0.422400000000    -0.00565412 
C562     C      0.591850000000     0.941430000000     0.413400000000    -0.0069426  
C563     C      0.579960000000     0.955390000000     0.438050000000    -0.0512792  
C564     C      0.584040000000     0.949360000000     0.471880000000    -0.00635635 
C565     C      0.783750000000     0.000610000000     0.542060000000    -0.00605657 
C566     C      0.775030000000     0.996550000000     0.508050000000    -0.0505261  
C567     C      0.789470000000     0.026430000000     0.487370000000    -0.00622267 
C568     C      0.811470000000     0.059970000000     0.500860000000    -0.00743048 
C569     C      0.819970000000     0.063870000000     0.535020000000    -0.0492243  
C570     C      0.806240000000     0.033780000000     0.555300000000    -0.007259   
C571     C      0.612380000000     0.796070000000     0.394410000000    -0.00803388 
C572     C      0.645940000000     0.826080000000     0.390400000000    -0.0503764  
C573     C      0.659600000000     0.836370000000     0.358150000000    -0.00799981 
C574     C      0.640290000000     0.816920000000     0.330530000000    -0.00749933 
C575     C      0.606900000000     0.786710000000     0.334520000000    -0.0507756  
C576     C      0.593060000000     0.776550000000     0.366740000000    -0.00733738 
Cd1      Cd     0.695780000000     0.893040000000     0.474750000000     0.5165     
Cd2      Cd     0.553160000000     0.034320000000     0.413640000000     0.513781   
Cd3      Cd     0.040400000000     0.239270000000     0.968690000000     0.515601   
Cd4      Cd     0.880780000000     0.366720000000     0.925090000000     0.514623   
Cd5      Cd     0.224440000000     0.044720000000     0.585910000000     0.515539   
Cd6      Cd     0.364450000000     0.897970000000     0.628890000000     0.516176   
Cd7      Cd     0.359400000000     0.227310000000     0.805780000000     0.515871   
Cd8      Cd     0.218230000000     0.371810000000     0.745190000000     0.515731   
Cd9      Cd     0.705030000000     0.572010000000     0.300240000000     0.516016   
Cd10     Cd     0.562680000000     0.718140000000     0.250110000000     0.515445   
Cd11     Cd     0.026240000000     0.563350000000     0.133980000000     0.514275   
Cd12     Cd     0.882820000000     0.705450000000     0.077000000000     0.515596   
Cd13     Cd     0.486740000000     0.904120000000     0.131510000000     0.515452   
Cd14     Cd     0.774720000000     0.045510000000     0.084820000000     0.516065   
Cd15     Cd     0.817550000000     0.225680000000     0.305140000000     0.515655   
Cd16     Cd     0.106990000000     0.380950000000     0.254990000000     0.51628    
Cd17     Cd     0.150440000000     0.232810000000     0.466440000000     0.516338   
Cd18     Cd     0.442090000000     0.370530000000     0.416600000000     0.515944   
Cd19     Cd     0.485950000000     0.559740000000     0.629360000000     0.516538   
Cd20     Cd     0.776010000000     0.703770000000     0.583740000000     0.516251   
Cd21     Cd     0.815450000000     0.559600000000     0.801610000000     0.515952   
Cd22     Cd     0.105420000000     0.705810000000     0.754890000000     0.514915   
Cd23     Cd     0.439730000000     0.041410000000     0.913320000000     0.513501   
Cd24     Cd     0.152920000000     0.896100000000     0.967630000000     0.516767   
Cd25     Cd     0.551940000000     0.496170000000     0.916100000000     0.516317   
Cd26     Cd     0.698810000000     0.784080000000     0.960720000000     0.514917   
Cd27     Cd     0.698190000000     0.113450000000     0.798490000000     0.512709   
Cd28     Cd     0.560010000000     0.826710000000     0.740250000000     0.516603   
Cd29     Cd     0.886080000000     0.163770000000     0.583220000000     0.516581   
Cd30     Cd     0.032790000000     0.450460000000     0.633140000000     0.51233    
Cd31     Cd     0.896770000000     0.495310000000     0.412590000000     0.516585   
Cd32     Cd     0.042820000000     0.781710000000     0.467700000000     0.515074   
Cd33     Cd     0.377310000000     0.114680000000     0.290900000000     0.51486    
Cd34     Cd     0.219200000000     0.827780000000     0.243400000000     0.515003   
Cd35     Cd     0.233050000000     0.163980000000     0.079880000000     0.517046   
Cd36     Cd     0.370180000000     0.451700000000     0.135860000000     0.51667    
H1       H      0.314580000000     0.290700000000     0.048640000000     0.0567329  
H2       H      0.303200000000     0.263760000000     0.153270000000     0.0562322  
H3       H      0.332540000000     0.326110000000     0.167900000000     0.0565672  
H4       H      0.343280000000     0.352980000000     0.063270000000     0.0560277  
H5       H      0.365460000000     0.147370000000     0.172230000000     0.0580793  
H6       H      0.285690000000     0.134200000000     0.242910000000     0.0585093  
H7       H      0.250510000000     0.137940000000     0.197810000000     0.0584742  
H8       H      0.330250000000     0.151320000000     0.127020000000     0.0587544  
H9       H      0.284410000000     0.993020000000     0.325550000000     0.0577223  
H10      H      0.295660000000     0.015820000000     0.219990000000     0.0565884  
H11      H      0.261130000000     0.953030000000     0.207690000000     0.0570457  
H12      H      0.250200000000     0.930290000000     0.313240000000     0.0562321  
H13      H      0.184170000000     0.799980000000     0.364260000000     0.0582237  
H14      H      0.113290000000     0.813750000000     0.299440000000     0.0580791  
H15      H      0.079120000000     0.812770000000     0.347610000000     0.05806    
H16      H      0.150050000000     0.799040000000     0.412430000000     0.0585841  
H17      H      0.982820000000     0.620830000000     0.378210000000     0.0560452  
H18      H      0.973260000000     0.594070000000     0.482810000000     0.0552614  
H19      H      0.005470000000     0.656390000000     0.497340000000     0.0576969  
H20      H      0.014570000000     0.683270000000     0.392740000000     0.056656   
H21      H      0.992170000000     0.483600000000     0.465770000000     0.0581338  
H22      H      0.912710000000     0.477020000000     0.533330000000     0.0580802  
H23      H      0.947420000000     0.476380000000     0.580470000000     0.058962   
H24      H      0.026880000000     0.482700000000     0.513030000000     0.0591675  
H25      H      0.923210000000     0.288350000000     0.546870000000     0.0565914  
H26      H      0.914200000000     0.264430000000     0.652120000000     0.056265   
H27      H      0.944410000000     0.326960000000     0.665190000000     0.0582854  
H28      H      0.953890000000     0.351150000000     0.559910000000     0.0565061  
H29      H      0.849000000000     0.143660000000     0.703540000000     0.0582389  
H30      H      0.778730000000     0.152940000000     0.634080000000     0.0587531  
H31      H      0.741320000000     0.150080000000     0.680210000000     0.058145   
H32      H      0.811790000000     0.141030000000     0.749600000000     0.0579984  
H33      H      0.660250000000     0.988340000000     0.827650000000     0.0578908  
H34      H      0.677490000000     0.015900000000     0.723170000000     0.056448   
H35      H      0.646680000000     0.953530000000     0.708350000000     0.056409   
H36      H      0.629200000000     0.926210000000     0.812820000000     0.0562908  
H37      H      0.606460000000     0.799590000000     0.907400000000     0.0584546  
H38      H      0.689220000000     0.812900000000     0.840550000000     0.058269   
H39      H      0.655280000000     0.815150000000     0.793340000000     0.0585368  
H40      H      0.572500000000     0.801720000000     0.860220000000     0.0582815  
H41      H      0.587880000000     0.620040000000     0.878880000000     0.0565463  
H42      H      0.580910000000     0.598340000000     0.984540000000     0.0560182  
H43      H      0.611430000000     0.661240000000     0.996390000000     0.0573983  
H44      H      0.618890000000     0.683080000000     0.890730000000     0.0561098  
H45      H      0.446080000000     0.484990000000     0.969510000000     0.0584247  
H46      H      0.513960000000     0.468570000000     0.036180000000     0.0580621  
H47      H      0.477190000000     0.464920000000     0.083130000000     0.0585329  
H48      H      0.409320000000     0.481340000000     0.016450000000     0.0581851  
H49      H      0.156050000000     0.978990000000     0.050350000000     0.05647    
H50      H      0.198070000000     0.027370000000     0.954920000000     0.0554751  
H51      H      0.217750000000     0.085620000000     0.979420000000     0.0572124  
H52      H      0.174550000000     0.036250000000     0.074360000000     0.0585406  
H53      H      0.512820000000     0.013930000000     0.839340000000     0.0572733  
H54      H      0.543590000000     0.123710000000     0.841680000000     0.0552962  
H55      H      0.600330000000     0.139160000000     0.816420000000     0.055806   
H56      H      0.570010000000     0.029530000000     0.815390000000     0.0546616  
H57      H      0.315100000000     0.954140000000     0.882320000000     0.057876   
H58      H      0.340910000000     0.962910000000     0.987200000000     0.0562968  
H59      H      0.278220000000     0.932440000000     0.001130000000     0.0567266  
H60      H      0.252620000000     0.924090000000     0.896270000000     0.0563874  
H61      H      0.130790000000     0.607650000000     0.734410000000     0.0545073  
H62      H      0.021860000000     0.580580000000     0.731870000000     0.0533543  
H63      H      0.005550000000     0.523840000000     0.706660000000     0.0568056  
H64      H      0.114740000000     0.551430000000     0.707760000000     0.0552286  
H65      H      0.121330000000     0.815750000000     0.803270000000     0.0583733  
H66      H      0.136600000000     0.749670000000     0.873160000000     0.0582747  
H67      H      0.140480000000     0.788060000000     0.918610000000     0.0588319  
H68      H      0.125170000000     0.854120000000     0.848730000000     0.0581051  
H69      H      0.740050000000     0.551020000000     0.902760000000     0.0572666  
H70      H      0.688340000000     0.510320000000     0.808140000000     0.0583054  
H71      H      0.632210000000     0.495830000000     0.832650000000     0.0566896  
H72      H      0.682840000000     0.535430000000     0.927790000000     0.055666   
H73      H      0.940750000000     0.646520000000     0.838510000000     0.0570436  
H74      H      0.918180000000     0.631800000000     0.733010000000     0.0563187  
H75      H      0.981070000000     0.665350000000     0.720680000000     0.0580483  
H76      H      0.003820000000     0.679720000000     0.826180000000     0.0550188  
H77      H      0.853120000000     0.720750000000     0.481480000000     0.056923   
H78      H      0.903020000000     0.753450000000     0.577960000000     0.0579518  
H79      H      0.959800000000     0.770730000000     0.553090000000     0.0565786  
H80      H      0.910960000000     0.739330000000     0.456130000000     0.0559911  
H81      H      0.785120000000     0.606840000000     0.635270000000     0.0585305  
H82      H      0.804880000000     0.691070000000     0.702840000000     0.0583654  
H83      H      0.807440000000     0.656610000000     0.749290000000     0.0587503  
H84      H      0.787690000000     0.572350000000     0.681760000000     0.0580795  
H85      H      0.610540000000     0.598080000000     0.665100000000     0.0568156  
H86      H      0.587930000000     0.588940000000     0.559540000000     0.0563638  
H87      H      0.650980000000     0.619670000000     0.547270000000     0.0566155  
H88      H      0.673590000000     0.629330000000     0.652830000000     0.0561131  
H89      H      0.529840000000     0.690940000000     0.615700000000     0.0559834  
H90      H      0.486490000000     0.642170000000     0.710690000000     0.0564161  
H91      H      0.503790000000     0.699190000000     0.734520000000     0.058514   
H92      H      0.548280000000     0.749020000000     0.640040000000     0.0574491  
H93      H      0.451250000000     0.477030000000     0.465900000000     0.0585442  
H94      H      0.471720000000     0.414020000000     0.535190000000     0.0581914  
H95      H      0.475600000000     0.452510000000     0.580570000000     0.0586205  
H96      H      0.455160000000     0.515510000000     0.511260000000     0.0582155  
H97      H      0.397620000000     0.238680000000     0.425160000000     0.0549679  
H98      H      0.458320000000     0.295310000000     0.338910000000     0.0551689  
H99      H      0.444300000000     0.240380000000     0.312290000000     0.0592109  
H100     H      0.382320000000     0.182660000000     0.397850000000     0.0576764  
H101     H      0.074910000000     0.222040000000     0.568340000000     0.0569968  
H102     H      0.023080000000     0.181380000000     0.473780000000     0.0585035  
H103     H      0.966750000000     0.165550000000     0.498720000000     0.0567819  
H104     H      0.017530000000     0.205080000000     0.593810000000     0.0556251  
H105     H      0.277570000000     0.310980000000     0.500140000000     0.0567806  
H106     H      0.253110000000     0.300520000000     0.394950000000     0.0564256  
H107     H      0.315910000000     0.329520000000     0.381680000000     0.0566257  
H108     H      0.340280000000     0.339340000000     0.486880000000     0.056494   
H109     H      0.234610000000     0.435380000000     0.246120000000     0.0583728  
H110     H      0.181690000000     0.393140000000     0.152280000000     0.0573111  
H111     H      0.238830000000     0.410230000000     0.126240000000     0.0560241  
H112     H      0.290730000000     0.451300000000     0.220600000000     0.0564415  
H113     H      0.139460000000     0.367680000000     0.373190000000     0.0580682  
H114     H      0.117140000000     0.284100000000     0.303800000000     0.0586027  
H115     H      0.120840000000     0.248970000000     0.348940000000     0.0582915  
H116     H      0.143270000000     0.332500000000     0.418400000000     0.0586063  
H117     H      0.943720000000     0.270590000000     0.338140000000     0.0576208  
H118     H      0.919500000000     0.257640000000     0.232870000000     0.0563458  
H119     H      0.982300000000     0.292130000000     0.219770000000     0.057156   
H120     H      0.006410000000     0.305520000000     0.325040000000     0.0549846  
H121     H      0.859870000000     0.356190000000     0.289930000000     0.0556215  
H122     H      0.822500000000     0.309850000000     0.386980000000     0.0559747  
H123     H      0.840800000000     0.367490000000     0.410060000000     0.0582517  
H124     H      0.879440000000     0.414830000000     0.313460000000     0.0571144  
H125     H      0.785590000000     0.185910000000     0.185690000000     0.0583127  
H126     H      0.801720000000     0.117990000000     0.252390000000     0.0583197  
H127     H      0.800030000000     0.082430000000     0.205260000000     0.0581877  
H128     H      0.783850000000     0.150280000000     0.138510000000     0.0588352  
H129     H      0.778610000000     0.966340000000     0.002840000000     0.0559826  
H130     H      0.726640000000     0.912660000000     0.093610000000     0.0550991  
H131     H      0.708440000000     0.855700000000     0.066700000000     0.0573791  
H132     H      0.761660000000     0.910530000000     0.976570000000     0.0589786  
H133     H      0.359660000000     0.845650000000     0.139480000000     0.058657   
H134     H      0.409230000000     0.889850000000     0.234140000000     0.0569205  
H135     H      0.350860000000     0.871510000000     0.258210000000     0.0547482  
H136     H      0.302470000000     0.828630000000     0.163010000000     0.0556172  
H137     H      0.466140000000     0.955700000000     0.964440000000     0.0580541  
H138     H      0.471280000000     0.033540000000     0.033090000000     0.058205   
H139     H      0.472620000000     0.998530000000     0.079790000000     0.0586534  
H140     H      0.467290000000     0.920700000000     0.011030000000     0.0584453  
H141     H      0.587700000000     0.980990000000     0.060950000000     0.0560814  
H142     H      0.610770000000     0.989260000000     0.166390000000     0.0573636  
H143     H      0.673650000000     0.018660000000     0.153850000000     0.0559841  
H144     H      0.650690000000     0.010900000000     0.048410000000     0.0567768  
H145     H      0.860640000000     0.788800000000     0.010230000000     0.0552131  
H146     H      0.776550000000     0.680550000000     0.010740000000     0.0565846  
H147     H      0.736830000000     0.698290000000     0.985930000000     0.053712   
H148     H      0.821250000000     0.806260000000     0.983900000000     0.0544977  
H149     H      0.014450000000     0.794000000000     0.091910000000     0.0550682  
H150     H      0.967990000000     0.781790000000     0.994330000000     0.0559668  
H151     H      0.025570000000     0.821770000000     0.970960000000     0.0581844  
H152     H      0.073110000000     0.833760000000     0.068080000000     0.0567128  
H153     H      0.094990000000     0.506370000000     0.150600000000     0.0592731  
H154     H      0.037320000000     0.501220000000     0.239550000000     0.0575687  
H155     H      0.056780000000     0.463160000000     0.265950000000     0.0550605  
H156     H      0.113210000000     0.468240000000     0.176380000000     0.055517   
H157     H      0.940130000000     0.601520000000     0.165660000000     0.0574456  
H158     H      0.949030000000     0.584670000000     0.060990000000     0.0566914  
H159     H      0.918130000000     0.616060000000     0.046610000000     0.0573055  
H160     H      0.909610000000     0.633260000000     0.151270000000     0.0561866  
H161     H      0.149790000000     0.662270000000     0.153910000000     0.0544191  
H162     H      0.067820000000     0.688730000000     0.157580000000     0.0533321  
H163     H      0.109600000000     0.746410000000     0.180980000000     0.0561539  
H164     H      0.191240000000     0.719330000000     0.178900000000     0.0547971  
H165     H      0.480200000000     0.741990000000     0.183590000000     0.0549865  
H166     H      0.588540000000     0.826080000000     0.186200000000     0.0564276  
H167     H      0.571160000000     0.865910000000     0.161080000000     0.0535728  
H168     H      0.463130000000     0.781520000000     0.156910000000     0.0540981  
H169     H      0.486710000000     0.635340000000     0.165830000000     0.0560867  
H170     H      0.473140000000     0.586740000000     0.262460000000     0.0555894  
H171     H      0.433280000000     0.528820000000     0.237480000000     0.0566792  
H172     H      0.446660000000     0.578490000000     0.141330000000     0.057898   
H173     H      0.770160000000     0.557750000000     0.400100000000     0.0570716  
H174     H      0.780500000000     0.520110000000     0.303920000000     0.0581107  
H175     H      0.819690000000     0.502010000000     0.327960000000     0.056892   
H176     H      0.809180000000     0.538510000000     0.424610000000     0.0564649  
H177     H      0.738690000000     0.584090000000     0.179300000000     0.0583272  
H178     H      0.810030000000     0.667850000000     0.244680000000     0.0584981  
H179     H      0.845310000000     0.701120000000     0.196740000000     0.0581763  
H180     H      0.773770000000     0.617320000000     0.131470000000     0.0583039  
H181     H      0.665470000000     0.657190000000     0.336350000000     0.0562064  
H182     H      0.678020000000     0.646100000000     0.231170000000     0.0559902  
H183     H      0.648130000000     0.678740000000     0.217900000000     0.057326   
H184     H      0.634950000000     0.689330000000     0.323080000000     0.0561588  
H185     H      0.625040000000     0.491610000000     0.384740000000     0.0567276  
H186     H      0.574220000000     0.479080000000     0.289380000000     0.0562152  
H187     H      0.517120000000     0.437150000000     0.314720000000     0.0572456  
H188     H      0.569010000000     0.449640000000     0.409560000000     0.0582915  
H189     H      0.194690000000     0.455680000000     0.681240000000     0.0553204  
H190     H      0.112420000000     0.346740000000     0.677710000000     0.0566777  
H191     H      0.072300000000     0.364120000000     0.653300000000     0.0541752  
H192     H      0.154920000000     0.472900000000     0.655460000000     0.0553951  
H193     H      0.301720000000     0.444500000000     0.659880000000     0.0563947  
H194     H      0.350310000000     0.460640000000     0.756870000000     0.0557402  
H195     H      0.408390000000     0.499640000000     0.731580000000     0.0568431  
H196     H      0.358730000000     0.483710000000     0.635060000000     0.057984   
H197     H      0.444600000000     0.203690000000     0.867640000000     0.0552294  
H198     H      0.335560000000     0.121360000000     0.871700000000     0.0566153  
H199     H      0.353400000000     0.081080000000     0.894710000000     0.0542439  
H200     H      0.462290000000     0.163750000000     0.892090000000     0.055147   
H201     H      0.254600000000     0.283050000000     0.716390000000     0.0571417  
H202     H      0.243740000000     0.299520000000     0.820720000000     0.0561926  
H203     H      0.273990000000     0.267680000000     0.835960000000     0.0568726  
H204     H      0.285360000000     0.251720000000     0.731620000000     0.0561181  
H205     H      0.448690000000     0.358520000000     0.791620000000     0.0558149  
H206     H      0.434320000000     0.312000000000     0.889420000000     0.0564655  
H207     H      0.474360000000     0.369340000000     0.913000000000     0.0578513  
H208     H      0.488560000000     0.416920000000     0.815680000000     0.0567378  
H209     H      0.469720000000     0.865990000000     0.752770000000     0.05574    
H210     H      0.480280000000     0.829360000000     0.656210000000     0.056631   
H211     H      0.439830000000     0.845970000000     0.632390000000     0.0581734  
H212     H      0.429460000000     0.883740000000     0.728500000000     0.0569175  
H213     H      0.286900000000     0.811080000000     0.709630000000     0.0558361  
H214     H      0.231200000000     0.810870000000     0.620770000000     0.0549522  
H215     H      0.174760000000     0.770190000000     0.648090000000     0.0575492  
H216     H      0.231640000000     0.770360000000     0.736270000000     0.0591422  
H217     H      0.195830000000     0.147520000000     0.455560000000     0.0551285  
H218     H      0.140390000000     0.143480000000     0.545510000000     0.0553752  
H219     H      0.157760000000     0.104440000000     0.570970000000     0.0590204  
H220     H      0.214440000000     0.108660000000     0.481620000000     0.0572322  
H221     H      0.310150000000     0.008390000000     0.550390000000     0.057542   
H222     H      0.302270000000     0.021100000000     0.656170000000     0.056226   
H223     H      0.331200000000     0.987110000000     0.667800000000     0.0567431  
H224     H      0.338590000000     0.974080000000     0.562020000000     0.0560106  
H225     H      0.188090000000     0.921780000000     0.559360000000     0.0534544  
H226     H      0.102900000000     0.943700000000     0.560280000000     0.0540236  
H227     H      0.064400000000     0.886980000000     0.533190000000     0.0548592  
H228     H      0.149240000000     0.864420000000     0.533790000000     0.0563986  
H229     H      0.236290000000     0.081540000000     0.705940000000     0.0583672  
H230     H      0.317680000000     0.153370000000     0.638730000000     0.0585505  
H231     H      0.351650000000     0.189550000000     0.685930000000     0.0582754  
H232     H      0.270190000000     0.117590000000     0.753030000000     0.0583369  
H233     H      0.816520000000     0.428460000000     0.906770000000     0.0591045  
H234     H      0.874210000000     0.430610000000     0.818900000000     0.0575565  
H235     H      0.858680000000     0.471520000000     0.792150000000     0.0548773  
H236     H      0.802230000000     0.469480000000     0.880680000000     0.0555358  
H237     H      0.839830000000     0.241260000000     0.900140000000     0.0540755  
H238     H      0.757490000000     0.267150000000     0.904690000000     0.0548029  
H239     H      0.717050000000     0.211570000000     0.876790000000     0.055057   
H240     H      0.799080000000     0.185070000000     0.873720000000     0.0570499  
H241     H      0.896480000000     0.410000000000     0.044340000000     0.0582326  
H242     H      0.972980000000     0.478870000000     0.971900000000     0.0593233  
H243     H      0.008730000000     0.518480000000     0.016330000000     0.0567864  
H244     H      0.932280000000     0.449780000000     0.088870000000     0.0582956  
H245     H      0.145150000000     0.206290000000     0.092540000000     0.0560926  
H246     H      0.154140000000     0.168310000000     0.996140000000     0.0566665  
H247     H      0.114740000000     0.186240000000     0.972270000000     0.0580343  
H248     H      0.105930000000     0.225380000000     0.068200000000     0.0567808  
H249     H      0.074370000000     0.251190000000     0.848000000000     0.0581205  
H250     H      0.145330000000     0.335580000000     0.913000000000     0.0583871  
H251     H      0.180780000000     0.368470000000     0.864950000000     0.0580878  
H252     H      0.109550000000     0.284030000000     0.800100000000     0.0582871  
H253     H      0.997950000000     0.321030000000     0.006290000000     0.0560589  
H254     H      0.007620000000     0.310070000000     0.900520000000     0.0535711  
H255     H      0.972760000000     0.337940000000     0.888910000000     0.0587327  
H256     H      0.962640000000     0.348550000000     0.994710000000     0.0571761  
H257     H      0.909340000000     0.150070000000     0.958460000000     0.0556922  
H258     H      0.959890000000     0.157980000000     0.053090000000     0.0567455  
H259     H      0.903100000000     0.118250000000     0.078100000000     0.0584701  
H260     H      0.851620000000     0.110520000000     0.983960000000     0.0569857  
H261     H      0.453300000000     0.009010000000     0.338660000000     0.0568354  
H262     H      0.538420000000     0.116740000000     0.336210000000     0.0549777  
H263     H      0.499440000000     0.134410000000     0.309420000000     0.0549521  
H264     H      0.414050000000     0.026970000000     0.313300000000     0.0539583  
H265     H      0.680760000000     0.077110000000     0.395540000000     0.054486   
H266     H      0.651500000000     0.157030000000     0.393340000000     0.0556397  
H267     H      0.708540000000     0.198300000000     0.368220000000     0.0551411  
H268     H      0.738340000000     0.118770000000     0.371820000000     0.0566323  
H269     H      0.509420000000     0.028310000000     0.531010000000     0.0582812  
H270     H      0.438690000000     0.948550000000     0.461980000000     0.0580723  
H271     H      0.401080000000     0.914110000000     0.508170000000     0.058146   
H272     H      0.471700000000     0.993930000000     0.577200000000     0.0587898  
H273     H      0.756260000000     0.825780000000     0.479450000000     0.0586861  
H274     H      0.710530000000     0.827520000000     0.574080000000     0.0573771  
H275     H      0.730760000000     0.789100000000     0.598000000000     0.0559875  
H276     H      0.775340000000     0.787190000000     0.502880000000     0.0563983  
H277     H      0.606850000000     0.929590000000     0.507030000000     0.0560653  
H278     H      0.621240000000     0.916020000000     0.402840000000     0.0557556  
H279     H      0.588980000000     0.945570000000     0.387210000000     0.0582164  
H280     H      0.574780000000     0.959600000000     0.491420000000     0.0565605  
H281     H      0.773030000000     0.978050000000     0.558570000000     0.0568596  
H282     H      0.782880000000     0.023960000000     0.461090000000     0.055961   
H283     H      0.821880000000     0.082740000000     0.484650000000     0.0571066  
H284     H      0.812240000000     0.035890000000     0.581700000000     0.0582325  
H285     H      0.600960000000     0.787610000000     0.418970000000     0.0584441  
H286     H      0.685160000000     0.859540000000     0.354190000000     0.058393   
H287     H      0.651840000000     0.825390000000     0.306020000000     0.0584034  
H288     H      0.567580000000     0.753260000000     0.370650000000     0.0581888  
O1       O      0.642610000000     0.895240000000     0.491700000000    -0.222572   
O2       O      0.695400000000     0.875610000000     0.416820000000    -0.222269   
O3       O      0.693800000000     0.854640000000     0.521190000000    -0.224196   
O4       O      0.725220000000     0.939350000000     0.514740000000    -0.233644   
O5       O      0.748840000000     0.951710000000     0.465540000000    -0.223567   
O6       O      0.732480000000     0.867660000000     0.482080000000    -0.233351   
O7       O      0.667990000000     0.918320000000     0.444430000000    -0.233834   
O8       O      0.651390000000     0.840270000000     0.448310000000    -0.232254   
O9       O      0.516360000000     0.022030000000     0.362740000000    -0.22444    
O10      O      0.605890000000     0.093050000000     0.423620000000    -0.222664   
O11      O      0.558860000000     0.982900000000     0.399390000000    -0.221935   
O12      O      0.495850000000     0.995790000000     0.436580000000    -0.23451    
O13      O      0.531260000000     0.037820000000     0.469400000000    -0.223888   
O14      O      0.569840000000     0.002190000000     0.450210000000    -0.233529   
O15      O      0.538500000000     0.073700000000     0.384630000000    -0.232729   
O16      O      0.611230000000     0.057460000000     0.390250000000    -0.231815   
O17      O      0.079910000000     0.243080000000     0.014800000000    -0.224045   
O18      O      0.058030000000     0.240620000000     0.910600000000    -0.222953   
O19      O      0.035140000000     0.290030000000     0.987290000000    -0.224079   
O20      O      0.995570000000     0.207810000000     0.009550000000    -0.232837   
O21      O      0.982370000000     0.184840000000     0.960150000000    -0.222817   
O22      O      0.012350000000     0.265300000000     0.939750000000    -0.235014   
O23      O      0.068470000000     0.204970000000     0.975540000000    -0.233709   
O24      O      0.092270000000     0.285100000000     0.942060000000    -0.232107   
O25      O      0.883450000000     0.400460000000     0.873820000000    -0.224462   
O26      O      0.883140000000     0.387400000000     0.982780000000    -0.222147   
O27      O      0.933430000000     0.365340000000     0.906240000000    -0.221308   
O28      O      0.856400000000     0.310910000000     0.896860000000    -0.232113   
O29      O      0.823330000000     0.312010000000     0.936130000000    -0.223771   
O30      O      0.914860000000     0.348770000000     0.956860000000    -0.232821   
O31      O      0.843610000000     0.390210000000     0.910710000000    -0.234853   
O32      O      0.923130000000     0.422620000000     0.947950000000    -0.232997   
O33      O      0.276740000000     0.042230000000     0.568020000000    -0.221495   
O34      O      0.167810000000     0.989020000000     0.595180000000    -0.223392   
O35      O      0.226660000000     0.080060000000     0.536180000000    -0.225356   
O36      O      0.267490000000     0.099270000000     0.610990000000    -0.232655   
O37      O      0.225420000000     0.063200000000     0.643760000000    -0.222663   
O38      O      0.186130000000     0.067150000000     0.573150000000    -0.234887   
O39      O      0.255870000000     0.024110000000     0.617840000000    -0.233176   
O40      O      0.201470000000     0.990930000000     0.554870000000    -0.2322     
O41      O      0.403010000000     0.900930000000     0.675440000000    -0.223361   
O42      O      0.382800000000     0.900730000000     0.570590000000    -0.222403   
O43      O      0.362090000000     0.949910000000     0.648760000000    -0.222724   
O44      O      0.319170000000     0.865630000000     0.669090000000    -0.233577   
O45      O      0.306040000000     0.843790000000     0.619260000000    -0.223336   
O46      O      0.338520000000     0.926770000000     0.600960000000    -0.234493   
O47      O      0.393090000000     0.864070000000     0.635360000000    -0.233516   
O48      O      0.417300000000     0.943360000000     0.603710000000    -0.2324     
O49      O      0.349030000000     0.185750000000     0.851700000000    -0.223622   
O50      O      0.413540000000     0.285310000000     0.796730000000    -0.223083   
O51      O      0.307620000000     0.232370000000     0.821530000000    -0.222848   
O52      O      0.317950000000     0.173020000000     0.780140000000    -0.233755   
O53      O      0.362040000000     0.207990000000     0.748730000000    -0.22327    
O54      O      0.330930000000     0.250570000000     0.772650000000    -0.233822   
O55      O      0.398750000000     0.207590000000     0.825360000000    -0.232171   
O56      O      0.386990000000     0.274890000000     0.844480000000    -0.233425   
O57      O      0.176440000000     0.360430000000     0.699170000000    -0.223573   
O58      O      0.276700000000     0.425860000000     0.752990000000    -0.223159   
O59      O      0.222050000000     0.319210000000     0.730540000000    -0.222937   
O60      O      0.163960000000     0.331640000000     0.771750000000    -0.233996   
O61      O      0.199600000000     0.376270000000     0.802160000000    -0.223481   
O62      O      0.241610000000     0.343650000000     0.778750000000    -0.233875   
O63      O      0.198580000000     0.410720000000     0.724300000000    -0.23239    
O64      O      0.265460000000     0.398120000000     0.705890000000    -0.233457   
O65      O      0.744330000000     0.575720000000     0.346650000000    -0.223583   
O66      O      0.722350000000     0.573240000000     0.241990000000    -0.222309   
O67      O      0.701080000000     0.623640000000     0.318640000000    -0.222913   
O68      O      0.659750000000     0.540510000000     0.340730000000    -0.233983   
O69      O      0.647270000000     0.517180000000     0.291480000000    -0.223471   
O70      O      0.677850000000     0.599000000000     0.271210000000    -0.233535   
O71      O      0.733730000000     0.538220000000     0.307040000000    -0.233285   
O72      O      0.757140000000     0.617310000000     0.273600000000    -0.232371   
O73      O      0.574800000000     0.760720000000     0.204640000000    -0.223478   
O74      O      0.558860000000     0.736120000000     0.307480000000    -0.223632   
O75      O      0.614230000000     0.712880000000     0.233980000000    -0.222974   
O76      O      0.534860000000     0.671050000000     0.210930000000    -0.23357    
O77      O      0.508030000000     0.660340000000     0.258540000000    -0.223015   
O78      O      0.590770000000     0.693790000000     0.282610000000    -0.233934   
O79      O      0.524190000000     0.738580000000     0.229340000000    -0.23199    
O80      O      0.603740000000     0.771630000000     0.277210000000    -0.233955   
O81      O      0.025310000000     0.530110000000     0.185030000000    -0.225171   
O82      O      0.083260000000     0.617700000000     0.122180000000    -0.223039   
O83      O      0.974730000000     0.567880000000     0.150910000000    -0.221022   
O84      O      0.982170000000     0.507120000000     0.112500000000    -0.232309   
O85      O      0.022840000000     0.540760000000     0.077340000000    -0.223831   
O86      O      0.995170000000     0.583310000000     0.100550000000    -0.231901   
O87      O      0.064720000000     0.541460000000     0.147230000000    -0.234993   
O88      O      0.051480000000     0.618730000000     0.162910000000    -0.23204    
O89      O      0.841360000000     0.693980000000     0.030610000000    -0.223598   
O90      O      0.940830000000     0.759590000000     0.086510000000    -0.222814   
O91      O      0.887050000000     0.653260000000     0.061380000000    -0.223082   
O92      O      0.828370000000     0.665080000000     0.103310000000    -0.234093   
O93      O      0.863890000000     0.709490000000     0.133950000000    -0.223601   
O94      O      0.905900000000     0.676660000000     0.110040000000    -0.234581   
O95      O      0.863280000000     0.744310000000     0.055590000000    -0.232116   
O96      O      0.930990000000     0.733280000000     0.038750000000    -0.233408   
O97      O      0.542450000000     0.955980000000     0.149330000000    -0.221004   
O98      O      0.470660000000     0.906850000000     0.073360000000    -0.22183    
O99      O      0.452510000000     0.906050000000     0.180230000000    -0.224871   
O100     O      0.515800000000     0.879970000000     0.163930000000    -0.231713   
O101     O      0.484630000000     0.847170000000     0.122710000000    -0.223307   
O102     O      0.424940000000     0.867390000000     0.141600000000    -0.234518   
O103     O      0.539110000000     0.934300000000     0.099860000000    -0.232783   
O104     O      0.477240000000     0.948470000000     0.106740000000    -0.23217    
O105     O      0.719560000000     0.042790000000     0.066360000000    -0.222746   
O106     O      0.792120000000     0.063890000000     0.142890000000    -0.222472   
O107     O      0.809520000000     0.083860000000     0.037800000000    -0.223431   
O108     O      0.759660000000     0.000020000000     0.044570000000    -0.233569   
O109     O      0.769790000000     0.987020000000     0.094000000000    -0.223256   
O110     O      0.837330000000     0.073400000000     0.076870000000    -0.233349   
O111     O      0.720560000000     0.019470000000     0.113910000000    -0.234247   
O112     O      0.782670000000     0.098050000000     0.110610000000    -0.232172   
O113     O      0.875420000000     0.233700000000     0.321880000000    -0.22312    
O114     O      0.819890000000     0.282690000000     0.295170000000    -0.222874   
O115     O      0.787930000000     0.183950000000     0.351350000000    -0.223514   
O116     O      0.806870000000     0.172170000000     0.279540000000    -0.233521   
O117     O      0.795060000000     0.205200000000     0.248230000000    -0.223642   
O118     O      0.758150000000     0.203730000000     0.325170000000    -0.232444   
O119     O      0.869940000000     0.251130000000     0.272710000000    -0.23406    
O120     O      0.835710000000     0.273210000000     0.343610000000    -0.233011   
O121     O      0.140360000000     0.377720000000     0.206800000000    -0.223077   
O122     O      0.126680000000     0.378970000000     0.312080000000    -0.222369   
O123     O      0.051130000000     0.329080000000     0.236810000000    -0.223316   
O124     O      0.092190000000     0.412630000000     0.215920000000    -0.233869   
O125     O      0.102390000000     0.434340000000     0.265860000000    -0.223236   
O126     O      0.053430000000     0.352060000000     0.285260000000    -0.233802   
O127     O      0.169320000000     0.415740000000     0.245670000000    -0.233481   
O128     O      0.115480000000     0.335860000000     0.278570000000    -0.232897   
O129     O      0.208900000000     0.281600000000     0.483500000000    -0.223242   
O130     O      0.131140000000     0.236440000000     0.409940000000    -0.222833   
O131     O      0.117080000000     0.237170000000     0.514210000000    -0.222881   
O132     O      0.162870000000     0.199660000000     0.505910000000    -0.233184   
O133     O      0.151800000000     0.177780000000     0.455970000000    -0.222859   
O134     O      0.087960000000     0.199510000000     0.475100000000    -0.233115   
O135     O      0.203320000000     0.257310000000     0.435050000000    -0.232831   
O136     O      0.145510000000     0.280440000000     0.443370000000    -0.232191   
O137     O      0.384900000000     0.363500000000     0.398580000000    -0.223437   
O138     O      0.461080000000     0.391790000000     0.473770000000    -0.222357   
O139     O      0.475010000000     0.408980000000     0.368790000000    -0.222705   
O140     O      0.430760000000     0.325410000000     0.377070000000    -0.23339    
O141     O      0.441070000000     0.314100000000     0.427160000000    -0.223      
O142     O      0.504610000000     0.401310000000     0.408040000000    -0.233488   
O143     O      0.388240000000     0.342710000000     0.446790000000    -0.233469   
O144     O      0.448580000000     0.423140000000     0.440580000000    -0.232694   
O145     O      0.542070000000     0.564610000000     0.647440000000    -0.223313   
O146     O      0.490210000000     0.617610000000     0.618800000000    -0.223339   
O147     O      0.451450000000     0.522710000000     0.677190000000    -0.223261   
O148     O      0.477950000000     0.506280000000     0.605960000000    -0.232572   
O149     O      0.466910000000     0.538410000000     0.572340000000    -0.222483   
O150     O      0.423550000000     0.532070000000     0.637350000000    -0.233372   
O151     O      0.539520000000     0.585650000000     0.599050000000    -0.233306   
O152     O      0.500950000000     0.605990000000     0.668620000000    -0.233628   
O153     O      0.810140000000     0.700720000000     0.536050000000    -0.223341   
O154     O      0.794680000000     0.701970000000     0.641120000000    -0.222308   
O155     O      0.719680000000     0.652610000000     0.565240000000    -0.223231   
O156     O      0.761460000000     0.735670000000     0.544490000000    -0.233724   
O157     O      0.771750000000     0.757260000000     0.594460000000    -0.223456   
O158     O      0.722290000000     0.675680000000     0.613720000000    -0.233603   
O159     O      0.838520000000     0.738140000000     0.575520000000    -0.233432   
O160     O      0.783270000000     0.658190000000     0.608450000000    -0.232552   
O161     O      0.871980000000     0.610480000000     0.820500000000    -0.223225   
O162     O      0.797340000000     0.561280000000     0.743810000000    -0.22242    
O163     O      0.782240000000     0.564870000000     0.848990000000    -0.222826   
O164     O      0.826860000000     0.525730000000     0.841320000000    -0.233636   
O165     O      0.817060000000     0.504500000000     0.791230000000    -0.223223   
O166     O      0.752880000000     0.527390000000     0.809900000000    -0.233588   
O167     O      0.869840000000     0.586780000000     0.772540000000    -0.234339   
O168     O      0.808960000000     0.605280000000     0.776190000000    -0.232785   
O169     O      0.048840000000     0.699890000000     0.737210000000    -0.221637   
O170     O      0.125310000000     0.727310000000     0.811910000000    -0.222769   
O171     O      0.135750000000     0.740350000000     0.703620000000    -0.224583   
O172     O      0.075310000000     0.650330000000     0.726300000000    -0.232478   
O173     O      0.109580000000     0.652290000000     0.766250000000    -0.223294   
O174     O      0.166180000000     0.730500000000     0.740060000000    -0.234896   
O175     O      0.053650000000     0.684810000000     0.787760000000    -0.232853   
O176     O      0.116640000000     0.760760000000     0.778050000000    -0.233105   
O177     O      0.465390000000     0.029120000000     0.863730000000    -0.224934   
O178     O      0.462680000000     0.044420000000     0.970480000000    -0.223784   
O179     O      0.382830000000     0.990090000000     0.896730000000    -0.221507   
O180     O      0.404920000000     0.063940000000     0.888630000000    -0.232052   
O181     O      0.445120000000     0.099790000000     0.922880000000    -0.223215   
O182     O      0.389580000000     0.007830000000     0.948000000000    -0.233732   
O183     O      0.495570000000     0.080460000000     0.886210000000    -0.233127   
O184     O      0.457230000000     0.002850000000     0.938020000000    -0.234722   
O185     O      0.208950000000     0.900090000000     0.984930000000    -0.222825   
O186     O      0.157990000000     0.954370000000     0.957950000000    -0.223726   
O187     O      0.117320000000     0.858420000000     0.014630000000    -0.223298   
O188     O      0.144570000000     0.842640000000     0.943970000000    -0.232184   
O189     O      0.134450000000     0.875440000000     0.910350000000    -0.222414   
O190     O      0.090520000000     0.869220000000     0.974740000000    -0.233478   
O191     O      0.206070000000     0.921930000000     0.937080000000    -0.233842   
O192     O      0.168700000000     0.942050000000     0.007510000000    -0.23334    
O193     O      0.555470000000     0.551570000000     0.897360000000    -0.223388   
O194     O      0.609770000000     0.499730000000     0.925540000000    -0.223998   
O195     O      0.513210000000     0.461040000000     0.869310000000    -0.223385   
O196     O      0.499270000000     0.487940000000     0.941870000000    -0.232887   
O197     O      0.533580000000     0.478510000000     0.974060000000    -0.222415   
O198     O      0.523330000000     0.433730000000     0.909100000000    -0.233626   
O199     O      0.578340000000     0.550390000000     0.945120000000    -0.234218   
O200     O      0.597380000000     0.510130000000     0.875950000000    -0.234145   
O201     O      0.695780000000     0.815780000000     0.011160000000    -0.224708   
O202     O      0.698760000000     0.802590000000     0.902750000000    -0.222357   
O203     O      0.646270000000     0.728960000000     0.978990000000    -0.22135    
O204     O      0.722410000000     0.752890000000     0.990490000000    -0.232532   
O205     O      0.755900000000     0.786420000000     0.950800000000    -0.223613   
O206     O      0.666130000000     0.732000000000     0.928810000000    -0.232984   
O207     O      0.736110000000     0.844970000000     0.974380000000    -0.234785   
O208     O      0.656610000000     0.796340000000     0.935220000000    -0.233229   
O209     O      0.691290000000     0.056000000000     0.814380000000    -0.221811   
O210     O      0.719780000000     0.138320000000     0.742140000000    -0.223906   
O211     O      0.735490000000     0.136910000000     0.849280000000    -0.224432   
O212     O      0.639400000000     0.078690000000     0.820740000000    -0.232102   
O213     O      0.646300000000     0.120830000000     0.787980000000    -0.222859   
O214     O      0.714560000000     0.167790000000     0.828120000000    -0.232433   
O215     O      0.681650000000     0.063930000000     0.762940000000    -0.233479   
O216     O      0.755160000000     0.131830000000     0.775050000000    -0.234693   
O217     O      0.563710000000     0.792010000000     0.693410000000    -0.223576   
O218     O      0.505520000000     0.829440000000     0.749200000000    -0.223689   
O219     O      0.611690000000     0.883830000000     0.723860000000    -0.222884   
O220     O      0.605310000000     0.819350000000     0.765740000000    -0.232404   
O221     O      0.561110000000     0.808410000000     0.797790000000    -0.22248    
O222     O      0.585740000000     0.879550000000     0.771140000000    -0.233678   
O223     O      0.524970000000     0.764470000000     0.732210000000    -0.23331    
O224     O      0.529290000000     0.841750000000     0.700050000000    -0.233647   
O225     O      0.889780000000     0.219170000000     0.564590000000    -0.222429   
O226     O      0.944370000000     0.168140000000     0.591960000000    -0.223162   
O227     O      0.847420000000     0.127200000000     0.537220000000    -0.223583   
O228     O      0.833220000000     0.156790000000     0.607780000000    -0.231738   
O229     O      0.867030000000     0.147970000000     0.641290000000    -0.222256   
O230     O      0.858470000000     0.101190000000     0.577650000000    -0.233141   
O231     O      0.913130000000     0.217740000000     0.612090000000    -0.233716   
O232     O      0.931360000000     0.178550000000     0.542610000000    -0.233166   
O233     O      0.981020000000     0.394140000000     0.649970000000    -0.220901   
O234     O      0.091400000000     0.455840000000     0.624370000000    -0.223237   
O235     O      0.020010000000     0.475730000000     0.682650000000    -0.225558   
O236     O      0.994930000000     0.468610000000     0.607800000000    -0.232106   
O237     O      0.036590000000     0.473320000000     0.575800000000    -0.223108   
O238     O      0.071980000000     0.505610000000     0.661140000000    -0.232923   
O239     O      0.998870000000     0.400180000000     0.598780000000    -0.232972   
O240     O      0.054720000000     0.415130000000     0.657720000000    -0.232571   
O241     O      0.898560000000     0.459000000000     0.366430000000    -0.223906   
O242     O      0.843480000000     0.500460000000     0.421310000000    -0.223337   
O243     O      0.949290000000     0.550860000000     0.394730000000    -0.222245   
O244     O      0.942080000000     0.487820000000     0.438050000000    -0.231773   
O245     O      0.899020000000     0.479190000000     0.470700000000    -0.222116   
O246     O      0.924730000000     0.548680000000     0.442380000000    -0.23349    
O247     O      0.860650000000     0.432810000000     0.406170000000    -0.233277   
O248     O      0.867260000000     0.511730000000     0.372200000000    -0.233305   
O249     O      0.038290000000     0.725040000000     0.482610000000    -0.222951   
O250     O      0.061650000000     0.804010000000     0.410520000000    -0.223757   
O251     O      0.084500000000     0.812230000000     0.513710000000    -0.22388    
O252     O      0.995540000000     0.760460000000     0.506960000000    -0.232312   
O253     O      0.984670000000     0.777760000000     0.459970000000    -0.221882   
O254     O      0.062770000000     0.840510000000     0.487980000000    -0.232549   
O255     O      0.018230000000     0.730030000000     0.434590000000    -0.234097   
O256     O      0.096730000000     0.794460000000     0.441240000000    -0.233264   
O257     O      0.324170000000     0.060210000000     0.309090000000    -0.221593   
O258     O      0.433950000000     0.116450000000     0.279290000000    -0.223919   
O259     O      0.374400000000     0.144610000000     0.342630000000    -0.224778   
O260     O      0.335810000000     0.129130000000     0.267770000000    -0.233616   
O261     O      0.376510000000     0.134930000000     0.233580000000    -0.222419   
O262     O      0.415430000000     0.174880000000     0.306810000000    -0.23494    
O263     O      0.342710000000     0.063480000000     0.258340000000    -0.233266   
O264     O      0.400270000000     0.081500000000     0.318100000000    -0.232484   
O265     O      0.226180000000     0.884830000000     0.224980000000    -0.223094   
O266     O      0.276440000000     0.830280000000     0.253950000000    -0.222826   
O267     O      0.176230000000     0.797420000000     0.198080000000    -0.223595   
O268     O      0.166310000000     0.817560000000     0.270520000000    -0.233617   
O269     O      0.200740000000     0.807060000000     0.301130000000    -0.223624   
O270     O      0.196660000000     0.768080000000     0.223870000000    -0.232245   
O271     O      0.244340000000     0.880920000000     0.274280000000    -0.235057   
O272     O      0.267000000000     0.845170000000     0.205110000000    -0.233391   
O273     O      0.283680000000     0.221570000000     0.064010000000    -0.222861   
O274     O      0.236590000000     0.145110000000     0.136430000000    -0.222466   
O275     O      0.234940000000     0.128730000000     0.032800000000    -0.223443   
O276     O      0.203100000000     0.180020000000     0.039870000000    -0.232955   
O277     O      0.179120000000     0.167670000000     0.088990000000    -0.223214   
O278     O      0.196660000000     0.101830000000     0.072160000000    -0.233002   
O279     O      0.258520000000     0.216030000000     0.112100000000    -0.232334   
O280     O      0.279690000000     0.156900000000     0.102420000000    -0.231601   
O281     O      0.366250000000     0.395560000000     0.152170000000    -0.223243   
O282     O      0.389450000000     0.470990000000     0.078460000000    -0.22233    
O283     O      0.408700000000     0.485920000000     0.183040000000    -0.22338    
O284     O      0.324990000000     0.436460000000     0.176540000000    -0.233893   
O285     O      0.312260000000     0.448110000000     0.127580000000    -0.223665   
O286     O      0.398190000000     0.513880000000     0.144160000000    -0.233498   
O287     O      0.343750000000     0.398710000000     0.104820000000    -0.23331    
O288     O      0.423290000000     0.460700000000     0.110510000000    -0.232655   


