data_structure

_audit_creation_method RASPA-1.0
_audit_creation_date 2023-5-22
_audit_author_name 'Poobodin Mano'

_cell_length_a    50.5667
_cell_length_b    50.5711
_cell_length_c    29.7362
_cell_angle_alpha 90.0143
_cell_angle_beta  89.9866
_cell_angle_gamma 120.408
_cell_volume      65581.7

_symmetry_cell_setting          triclinic
_symmetry_space_group_name_Hall 'P 1'
_symmetry_space_group_name_H-M  'P 1'
_symmetry_Int_Tables_number     1

_symmetry_equiv_pos_as_xyz 'x,y,z'

loop_
_atom_site_label
_atom_site_type_symbol
_atom_site_fract_x
_atom_site_fract_y
_atom_site_fract_z
_atom_site_charge
C1       C      0.458520000000     0.602230000000     0.123680000000     0.281585   
C2       C      0.370190000000     0.524820000000     0.019040000000     0.281842   
C3       C      0.452920000000     0.519930000000     0.062040000000     0.282218   
C4       C      0.371490000000     0.519510000000     0.166240000000     0.282588   
C5       C      0.524700000000     0.389630000000     0.943260000000     0.281999   
C6       C      0.611870000000     0.467020000000     0.044030000000     0.282207   
C7       C      0.610260000000     0.473700000000     0.894160000000     0.283599   
C8       C      0.529620000000     0.473050000000     0.999130000000     0.282763   
C9       C      0.859090000000     0.799370000000     0.105530000000     0.281764   
C10      C      0.946880000000     0.808920000000     0.204820000000     0.282219   
C11      C      0.863150000000     0.720430000000     0.163960000000     0.283015   
C12      C      0.942800000000     0.799440000000     0.055920000000     0.283259   
C13      C      0.701510000000     0.510040000000     0.187140000000     0.282493   
C14      C      0.787220000000     0.516450000000     0.288110000000     0.281835   
C15      C      0.786010000000     0.596950000000     0.230230000000     0.282887   
C16      C      0.704010000000     0.519050000000     0.336140000000     0.283332   
C17      C      0.189490000000     0.713050000000     0.276960000000     0.287133   
C18      C      0.272960000000     0.781870000000     0.378670000000     0.283648   
C19      C      0.270820000000     0.804800000000     0.231860000000     0.284465   
C20      C      0.196220000000     0.802450000000     0.336960000000     0.282218   
C21      C      0.036760000000     0.854480000000     0.347660000000     0.282573   
C22      C      0.121590000000     0.933900000000     0.447340000000     0.282206   
C23      C      0.038040000000     0.847120000000     0.498660000000     0.284032   
C24      C      0.120440000000     0.851220000000     0.396220000000     0.283637   
C25      C      0.516380000000     0.131420000000     0.440490000000     0.28222    
C26      C      0.599890000000     0.136630000000     0.542100000000     0.282596   
C27      C      0.515310000000     0.049290000000     0.494520000000     0.283432   
C28      C      0.599770000000     0.126640000000     0.392590000000     0.284141   
C29      C      0.448450000000     0.844980000000     0.621350000000     0.285599   
C30      C      0.361430000000     0.827270000000     0.522090000000     0.283152   
C31      C      0.366750000000     0.849910000000     0.668780000000     0.283711   
C32      C      0.439730000000     0.924970000000     0.558540000000     0.28247    
C33      C      0.937160000000     0.128540000000     0.702090000000     0.28197    
C34      C      0.849670000000     0.050230000000     0.598990000000     0.281675   
C35      C      0.853410000000     0.132050000000     0.658780000000     0.282404   
C36      C      0.935450000000     0.134310000000     0.554160000000     0.282792   
C37      C      0.691520000000     0.181710000000     0.682500000000     0.281922   
C38      C      0.779920000000     0.260620000000     0.781120000000     0.282128   
C39      C      0.696610000000     0.177250000000     0.831190000000     0.283125   
C40      C      0.775540000000     0.177230000000     0.722940000000     0.282913   
C41      C      0.277340000000     0.477830000000     0.880110000000     0.281926   
C42      C      0.189440000000     0.467560000000     0.778690000000     0.282164   
C43      C      0.275100000000     0.470490000000     0.731030000000     0.28334    
C44      C      0.193780000000     0.389180000000     0.834130000000     0.282721   
C45      C      0.028940000000     0.175190000000     0.842510000000     0.281568   
C46      C      0.115670000000     0.183550000000     0.942740000000     0.282292   
C47      C      0.112920000000     0.263630000000     0.889490000000     0.283108   
C48      C      0.031610000000     0.183000000000     0.992670000000     0.283642   
C49      C      0.931360000000     0.800580000000     0.610250000000     0.282043   
C50      C      0.851830000000     0.808320000000     0.710610000000     0.281767   
C51      C      0.848240000000     0.800310000000     0.562280000000     0.282932   
C52      C      0.848050000000     0.720430000000     0.668350000000     0.282588   
C53      C      0.717820000000     0.517050000000     0.785500000000     0.282077   
C54      C      0.795650000000     0.507220000000     0.685070000000     0.281938   
C55      C      0.801670000000     0.595880000000     0.728990000000     0.282709   
C56      C      0.800370000000     0.514940000000     0.834300000000     0.283308   
C57      C      0.169170000000     0.133000000000     0.199950000000     0.282044   
C58      C      0.181220000000     0.056550000000     0.099230000000     0.281902   
C59      C      0.178420000000     0.139280000000     0.051440000000     0.283015   
C60      C      0.258100000000     0.139850000000     0.159600000000     0.282813   
C61      C      0.460580000000     0.267730000000     0.287380000000     0.281926   
C62      C      0.468240000000     0.189500000000     0.185030000000     0.282241   
C63      C      0.458300000000     0.181630000000     0.333570000000     0.283338   
C64      C      0.381040000000     0.186020000000     0.227210000000     0.282648   
C65      C      0.839690000000     0.460740000000     0.543650000000     0.28206    
C66      C      0.845230000000     0.381980000000     0.440740000000     0.281977   
C67      C      0.847850000000     0.468520000000     0.394420000000     0.283402   
C68      C      0.926410000000     0.463330000000     0.496700000000     0.282948   
C69      C      0.131890000000     0.596820000000     0.620210000000     0.28493    
C70      C      0.146730000000     0.524720000000     0.521750000000     0.282653   
C71      C      0.126800000000     0.511210000000     0.668630000000     0.282971   
C72      C      0.050640000000     0.509210000000     0.558490000000     0.282739   
C73      C      0.043540000000     0.180760000000     0.445970000000     0.282058   
C74      C      0.122450000000     0.175330000000     0.343200000000     0.282662   
C75      C      0.126130000000     0.261810000000     0.391740000000     0.283187   
C76      C      0.128940000000     0.182230000000     0.493650000000     0.283441   
C77      C      0.263690000000     0.471980000000     0.275840000000     0.286928   
C78      C      0.194600000000     0.483480000000     0.379600000000     0.284246   
C79      C      0.170010000000     0.458870000000     0.231990000000     0.285248   
C80      C      0.175040000000     0.387160000000     0.333410000000     0.281917   
C81      C      0.378100000000     0.853450000000     0.121480000000     0.281821   
C82      C      0.456150000000     0.843910000000     0.018990000000     0.28213    
C83      C      0.460480000000     0.931730000000     0.061410000000     0.282342   
C84      C      0.461190000000     0.851580000000     0.166560000000     0.283023   
C85      C      0.512500000000     0.143890000000     0.042830000000     0.282157   
C86      C      0.589840000000     0.134380000000     0.941160000000     0.282087   
C87      C      0.506710000000     0.055770000000     0.998680000000     0.282756   
C88      C      0.506130000000     0.135670000000     0.893470000000     0.283274   
C89      C      0.795140000000     0.929800000000     0.952270000000     0.282243   
C90      C      0.804750000000     0.853230000000     0.849910000000     0.282471   
C91      C      0.796060000000     0.844620000000     0.999210000000     0.283568   
C92      C      0.716320000000     0.847240000000     0.897190000000     0.283132   
C93      C      0.513010000000     0.719430000000     0.781200000000     0.281925   
C94      C      0.503330000000     0.797640000000     0.881840000000     0.281784   
C95      C      0.591660000000     0.802450000000     0.838440000000     0.282786   
C96      C      0.511150000000     0.802090000000     0.733240000000     0.283069   
C97      C      0.134210000000     0.606960000000     0.019490000000     0.281924   
C98      C      0.122660000000     0.518840000000     0.123210000000     0.281807   
C99      C      0.127430000000     0.605570000000     0.166920000000     0.282982   
C100     C      0.045740000000     0.523920000000     0.062920000000     0.282477   
C101     C      0.832860000000     0.362280000000     0.042350000000     0.282196   
C102     C      0.842660000000     0.450510000000     0.943150000000     0.282067   
C103     C      0.921430000000     0.446100000000     0.000210000000     0.282886   
C104     C      0.841870000000     0.366890000000     0.892810000000     0.282982   
C105     C      0.176810000000     0.123170000000     0.603690000000     0.282194   
C106     C      0.170140000000     0.036520000000     0.702680000000     0.282134   
C107     C      0.181160000000     0.042320000000     0.554660000000     0.282955   
C108     C      0.258230000000     0.122530000000     0.663010000000     0.28271    
C109     C      0.470200000000     0.285760000000     0.686480000000     0.282206   
C110     C      0.461290000000     0.198320000000     0.785600000000     0.281968   
C111     C      0.460890000000     0.281720000000     0.835290000000     0.28321    
C112     C      0.381760000000     0.201400000000     0.728010000000     0.283012   
C113     C      0.259940000000     0.788410000000     0.779670000000     0.282008   
C114     C      0.181290000000     0.700040000000     0.880990000000     0.282087   
C115     C      0.177170000000     0.783660000000     0.837180000000     0.282514   
C116     C      0.176800000000     0.703050000000     0.732400000000     0.283001   
C117     C      0.050320000000     0.861340000000     0.946760000000     0.282623   
C118     C      0.126200000000     0.945410000000     0.843760000000     0.28261    
C119     C      0.137820000000     0.947350000000     0.994220000000     0.284497   
C120     C      0.132820000000     0.863580000000     0.894650000000     0.284029   
C121     C      0.595170000000     0.460100000000     0.443200000000     0.282317   
C122     C      0.516050000000     0.376310000000     0.544540000000     0.282451   
C123     C      0.513910000000     0.460750000000     0.496390000000     0.283539   
C124     C      0.507500000000     0.376490000000     0.394550000000     0.28392    
C125     C      0.381870000000     0.532760000000     0.619790000000     0.284719   
C126     C      0.455000000000     0.620950000000     0.522620000000     0.282545   
C127     C      0.467900000000     0.613340000000     0.669290000000     0.282938   
C128     C      0.469030000000     0.539390000000     0.558040000000     0.282706   
C129     C      0.855130000000     0.031910000000     0.204580000000     0.282574   
C130     C      0.925940000000     0.120470000000     0.106000000000     0.284661   
C131     C      0.840050000000     0.038070000000     0.059380000000     0.282935   
C132     C      0.838300000000     0.111960000000     0.170060000000     0.282817   
C133     C      0.709630000000     0.187450000000     0.287560000000     0.282122   
C134     C      0.787680000000     0.272040000000     0.184780000000     0.282244   
C135     C      0.796830000000     0.272730000000     0.334320000000     0.283704   
C136     C      0.791280000000     0.188580000000     0.232840000000     0.283058   
C137     C      0.815000000000     0.940990000000     0.344550000000     0.284753   
C138     C      0.802280000000     0.859880000000     0.449640000000     0.286931   
C139     C      0.790410000000     0.941270000000     0.491730000000     0.284827   
C140     C      0.718410000000     0.863200000000     0.391040000000     0.28188    
C141     C      0.496450000000     0.711360000000     0.381570000000     0.285016   
C142     C      0.508080000000     0.791710000000     0.276710000000     0.286722   
C143     C      0.592450000000     0.788680000000     0.332830000000     0.282491   
C144     C      0.519510000000     0.710160000000     0.233060000000     0.284906   
C145     C      0.648250000000     0.805760000000     0.325640000000    -0.00680948 
C146     C      0.624720000000     0.807820000000     0.347450000000    -0.0519024  
C147     C      0.632250000000     0.828250000000     0.383730000000    -0.00653621 
C148     C      0.662650000000     0.846220000000     0.397950000000    -0.0069997  
C149     C      0.686180000000     0.844150000000     0.376170000000    -0.0516502  
C150     C      0.678670000000     0.823750000000     0.339840000000    -0.00678504 
C151     C      0.861670000000     0.015950000000     0.281820000000    -0.00656359 
C152     C      0.848000000000     0.008170000000     0.239090000000    -0.0524216  
C153     C      0.825750000000     0.977480000000     0.230190000000    -0.00684865 
C154     C      0.816270000000     0.955300000000     0.263890000000    -0.00648841 
C155     C      0.828650000000     0.963350000000     0.307360000000    -0.0533507  
C156     C      0.851990000000     0.993750000000     0.315740000000    -0.00654652 
C157     C      0.792980000000     0.152900000000     0.175990000000    -0.00691994 
C158     C      0.802390000000     0.168020000000     0.217650000000    -0.0517545  
C159     C      0.823070000000     0.163900000000     0.244040000000    -0.00676392 
C160     C      0.834420000000     0.145380000000     0.228810000000    -0.00660848 
C161     C      0.825380000000     0.130630000000     0.186840000000    -0.0524538  
C162     C      0.804380000000     0.134430000000     0.160730000000    -0.00659113 
C163     C      0.486670000000     0.674940000000     0.495810000000    -0.00679515 
C164     C      0.462860000000     0.644740000000     0.487890000000    -0.0524643  
C165     C      0.448110000000     0.637380000000     0.445890000000    -0.00693195 
C166     C      0.458110000000     0.659450000000     0.411720000000    -0.00607723 
C167     C      0.482870000000     0.689280000000     0.419120000000    -0.0534778  
C168     C      0.496490000000     0.696980000000     0.461870000000    -0.00640515 
C169     C      0.512640000000     0.496710000000     0.553140000000    -0.00676077 
C170     C      0.503330000000     0.481780000000     0.511330000000    -0.0520051  
C171     C      0.483250000000     0.486580000000     0.484530000000    -0.00662683 
C172     C      0.472420000000     0.505590000000     0.499490000000    -0.00666313 
C173     C      0.481390000000     0.520170000000     0.541580000000    -0.0524087  
C174     C      0.501770000000     0.515680000000     0.568120000000    -0.00663425 
C175     C      0.143940000000     0.806700000000     0.826360000000    -0.00681583 
C176     C      0.165710000000     0.803950000000     0.852130000000    -0.0519699  
C177     C      0.176380000000     0.820760000000     0.892320000000    -0.00691199 
C178     C      0.165600000000     0.840020000000     0.906330000000    -0.00652652 
C179     C      0.143910000000     0.842830000000     0.880450000000    -0.0521223  
C180     C      0.133150000000     0.825920000000     0.840370000000    -0.00658428 
C181     C      0.510820000000     0.317490000000     0.629200000000    -0.00685336 
C182     C      0.482730000000     0.309010000000     0.650290000000    -0.0523989  
C183     C      0.466340000000     0.323300000000     0.636930000000    -0.00688417 
C184     C      0.477470000000     0.345260000000     0.602950000000    -0.00648662 
C185     C      0.505480000000     0.353810000000     0.581710000000    -0.0527325  
C186     C      0.522220000000     0.339910000000     0.595330000000    -0.00653181 
C187     C      0.131900000000     0.006760000000     0.763810000000    -0.00664716 
C188     C      0.157730000000     0.012750000000     0.738160000000    -0.0522374  
C189     C      0.172080000000     0.995640000000     0.746540000000    -0.00723595 
C190     C      0.161350000000     0.973500000000     0.780280000000    -0.00633685 
C191     C      0.135790000000     0.967630000000     0.806320000000    -0.05285    
C192     C      0.120890000000     0.984220000000     0.797510000000    -0.00685189 
C193     C      0.315140000000     0.147900000000     0.653510000000    -0.00674178 
C194     C      0.289820000000     0.142900000000     0.679530000000    -0.0520445  
C195     C      0.294960000000     0.157260000000     0.721710000000    -0.00685947 
C196     C      0.324820000000     0.176210000000     0.737550000000    -0.00652119 
C197     C      0.350130000000     0.181180000000     0.711540000000    -0.0521986  
C198     C      0.344980000000     0.166840000000     0.669360000000    -0.00667679 
C199     C      0.792690000000     0.330970000000     0.100480000000    -0.0068818  
C200     C      0.820440000000     0.339050000000     0.078600000000    -0.0523199  
C201     C      0.836630000000     0.324420000000     0.091300000000    -0.00696856 
C202     C      0.825660000000     0.302550000000     0.125400000000    -0.00647145 
C203     C      0.798010000000     0.294410000000     0.147450000000    -0.0526619  
C204     C      0.781440000000     0.308630000000     0.134480000000    -0.00654531 
C205     C      0.128630000000     0.641530000000     0.965830000000    -0.00673175 
C206     C      0.146840000000     0.630330000000     0.983440000000    -0.0522688  
C207     C      0.176940000000     0.642400000000     0.967330000000    -0.00675386 
C208     C      0.188620000000     0.665520000000     0.934440000000    -0.00670979 
C209     C      0.170180000000     0.676520000000     0.916810000000    -0.0524562  
C210     C      0.140070000000     0.664160000000     0.932820000000    -0.00674797 
C211     C      0.008170000000     0.487990000000     0.006110000000    -0.00658728 
C212     C      0.013920000000     0.503920000000     0.047030000000    -0.0518129  
C213     C      0.989010000000     0.500750000000     0.072350000000    -0.00698211 
C214     C      0.958980000000     0.482010000000     0.057090000000    -0.00671579 
C215     C      0.953230000000     0.466100000000     0.016150000000    -0.0521315  
C216     C      0.978140000000     0.469300000000     0.990820000000    -0.00691866 
C217     C      0.522900000000     0.685060000000     0.732570000000    -0.00663593 
C218     C      0.502750000000     0.689260000000     0.760200000000    -0.051446   
C219     C      0.471880000000     0.665880000000     0.762680000000    -0.00663399 
C220     C      0.460850000000     0.640010000000     0.735100000000    -0.00614767 
C221     C      0.480570000000     0.636930000000     0.704980000000    -0.0521118  
C222     C      0.511950000000     0.659040000000     0.705420000000    -0.00632726 
C223     C      0.846780000000     0.010470000000     0.994540000000    -0.0061417  
C224     C      0.827230000000     0.013720000000     0.024810000000    -0.0517194  
C225     C      0.796040000000     0.991070000000     0.025860000000    -0.00656348 
C226     C      0.785170000000     0.964480000000     0.000020000000    -0.00649162 
C227     C      0.805210000000     0.960220000000     0.972230000000    -0.0517054  
C228     C      0.835810000000     0.984020000000     0.968250000000    -0.00658223 
C229     C      0.659550000000     0.814320000000     0.908280000000    -0.00674418 
C230     C      0.684410000000     0.835930000000     0.882430000000    -0.0519719  
C231     C      0.678510000000     0.846480000000     0.842060000000    -0.00680438 
C232     C      0.648400000000     0.835610000000     0.827770000000    -0.00680402 
C233     C      0.623540000000     0.813960000000     0.853560000000    -0.0519937  
C234     C      0.629420000000     0.803460000000     0.893990000000    -0.0068318  
C235     C      0.462420000000     0.136750000000     0.856050000000    -0.00609238 
C236     C      0.494030000000     0.147800000000     0.859000000000    -0.0533516  
C237     C      0.514290000000     0.173070000000     0.832550000000    -0.00558728 
C238     C      0.503350000000     0.188240000000     0.805910000000    -0.00674084 
C239     C      0.472000000000     0.178700000000     0.805820000000    -0.051265   
C240     C      0.451520000000     0.152220000000     0.829960000000    -0.00667188 
C241     C      0.453220000000     0.813130000000     0.225580000000    -0.00630999 
C242     C      0.473320000000     0.839660000000     0.201260000000    -0.0529443  
C243     C      0.505070000000     0.852500000000     0.206770000000    -0.00660909 
C244     C      0.516480000000     0.837730000000     0.233410000000    -0.00541974 
C245     C      0.496330000000     0.810140000000     0.255490000000    -0.0534874  
C246     C      0.464620000000     0.798630000000     0.252720000000    -0.00581054 
C247     C      0.449120000000     0.801400000000     0.966990000000    -0.00662988 
C248     C      0.467230000000     0.831480000000     0.983350000000    -0.0525045  
C249     C      0.497030000000     0.849840000000     0.966370000000    -0.00664816 
C250     C      0.508510000000     0.838590000000     0.933690000000    -0.00678927 
C251     C      0.490660000000     0.808530000000     0.917420000000    -0.0523063  
C252     C      0.460840000000     0.789920000000     0.934450000000    -0.00679668 
C253     C      0.461800000000     0.968970000000     0.004620000000    -0.00673221 
C254     C      0.472190000000     0.963460000000     0.045450000000    -0.0519689  
C255     C      0.494070000000     0.988530000000     0.070660000000    -0.00695276 
C256     C      0.505320000000     0.018490000000     0.055380000000    -0.00665675 
C257     C      0.494940000000     0.024020000000     0.014550000000    -0.0517867  
C258     C      0.473070000000     0.998950000000     0.989320000000    -0.00718399 
C259     C      0.125650000000     0.463500000000     0.205310000000    -0.00591058 
C260     C      0.155410000000     0.468840000000     0.198140000000    -0.0525006  
C261     C      0.172520000000     0.487290000000     0.161650000000    -0.00574196 
C262     C      0.161020000000     0.502020000000     0.135070000000    -0.00681852 
C263     C      0.132270000000     0.498650000000     0.144650000000    -0.0512673  
C264     C      0.114220000000     0.478310000000     0.178900000000    -0.00702389 
C265     C      0.121810000000     0.145160000000     0.554590000000    -0.00566086 
C266     C      0.141580000000     0.170730000000     0.528270000000    -0.0533787  
C267     C      0.173370000000     0.182960000000     0.531820000000    -0.00612728 
C268     C      0.185020000000     0.168440000000     0.558520000000    -0.0066032  
C269     C      0.165110000000     0.141710000000     0.582640000000    -0.0514386  
C270     C      0.133480000000     0.130910000000     0.581800000000    -0.00665566 
C271     C      0.160510000000     0.318270000000     0.402690000000    -0.00652446 
C272     C      0.137900000000     0.293850000000     0.377310000000    -0.0521056  
C273     C      0.127180000000     0.300350000000     0.337590000000    -0.00669561 
C274     C      0.139030000000     0.330670000000     0.323370000000    -0.00695189 
C275     C      0.161890000000     0.355050000000     0.348540000000    -0.0518011  
C276     C      0.172400000000     0.348520000000     0.388440000000    -0.006821   
C277     C      0.122390000000     0.633250000000     0.664670000000    -0.00617286 
C278     C      0.142940000000     0.626920000000     0.641880000000    -0.0523909  
C279     C      0.174520000000     0.648110000000     0.644510000000    -0.00625468 
C280     C      0.185450000000     0.673880000000     0.672170000000    -0.00612683 
C281     C      0.165000000000     0.679170000000     0.697210000000    -0.0532363  
C282     C      0.133320000000     0.659280000000     0.691870000000    -0.00638996 
C283     C      0.170670000000     0.494880000000     0.494950000000    -0.0065695  
C284     C      0.162480000000     0.517150000000     0.486520000000    -0.0526735  
C285     C      0.167760000000     0.530470000000     0.443580000000    -0.0067566  
C286     C      0.179480000000     0.520470000000     0.409100000000    -0.00622626 
C287     C      0.186390000000     0.497200000000     0.417110000000    -0.0531386  
C288     C      0.182620000000     0.485110000000     0.460690000000    -0.00663019 
C289     C      0.853410000000     0.345540000000     0.394220000000    -0.00663225 
C290     C      0.833790000000     0.351410000000     0.420410000000    -0.0513133  
C291     C      0.802510000000     0.329140000000     0.422590000000    -0.00668817 
C292     C      0.790700000000     0.302600000000     0.396350000000    -0.00563666 
C293     C      0.810040000000     0.297650000000     0.368000000000    -0.0534185  
C294     C      0.841680000000     0.318780000000     0.368500000000    -0.00622664 
C295     C      0.983260000000     0.494590000000     0.485180000000    -0.00697574 
C296     C      0.958190000000     0.474230000000     0.511820000000    -0.0517341  
C297     C      0.963770000000     0.464870000000     0.553530000000    -0.00689261 
C298     C      0.993790000000     0.475970000000     0.568540000000    -0.0068698  
C299     C      0.018850000000     0.496620000000     0.542120000000    -0.0522266  
C300     C      0.013260000000     0.505650000000     0.500150000000    -0.006416   
C301     C      0.451630000000     0.303300000000     0.334840000000    -0.00672833 
C302     C      0.471460000000     0.298130000000     0.307980000000    -0.0513663  
C303     C      0.502520000000     0.321010000000     0.305250000000    -0.00677633 
C304     C      0.513960000000     0.347470000000     0.331580000000    -0.00560956 
C305     C      0.494470000000     0.351710000000     0.360640000000    -0.053547   
C306     C      0.462990000000     0.329960000000     0.360710000000    -0.00619333 
C307     C      0.510160000000     0.196980000000     0.131430000000    -0.00660659 
C308     C      0.480240000000     0.178770000000     0.148320000000    -0.0525789  
C309     C      0.461510000000     0.149290000000     0.130490000000    -0.00661203 
C310     C      0.472230000000     0.138220000000     0.096460000000    -0.00674759 
C311     C      0.502130000000     0.156180000000     0.079620000000    -0.0524721  
C312     C      0.521120000000     0.185670000000     0.097510000000    -0.00672767 
C313     C      0.130870000000     0.975320000000     0.058220000000    -0.00572471 
C314     C      0.150470000000     0.972460000000     0.027590000000    -0.0538861  
C315     C      0.181370000000     0.995800000000     0.025450000000    -0.00638483 
C316     C      0.191850000000     0.022550000000     0.050810000000    -0.00666788 
C317     C      0.171710000000     0.026290000000     0.079150000000    -0.0515026  
C318     C      0.141440000000     0.001930000000     0.083960000000    -0.0066028  
C319     C      0.127290000000     0.123420000000     0.255030000000    -0.00683024 
C320     C      0.156420000000     0.143060000000     0.236520000000    -0.0522784  
C321     C      0.173690000000     0.173180000000     0.252850000000    -0.0068784  
C322     C      0.162360000000     0.183430000000     0.287170000000    -0.00641965 
C323     C      0.133290000000     0.163980000000     0.305780000000    -0.0528378  
C324     C      0.115700000000     0.133890000000     0.289230000000    -0.00647402 
C325     C      0.315080000000     0.173630000000     0.152300000000    -0.00671992 
C326     C      0.289570000000     0.151820000000     0.176890000000    -0.0521404  
C327     C      0.294390000000     0.141630000000     0.218410000000    -0.00676269 
C328     C      0.324070000000     0.152910000000     0.234930000000    -0.00674331 
C329     C      0.349580000000     0.174620000000     0.210270000000    -0.0519738  
C330     C      0.344780000000     0.184900000000     0.168820000000    -0.00682739 
C331     C      0.853570000000     0.497140000000     0.899280000000    -0.00658089 
C332     C      0.832560000000     0.470580000000     0.922810000000    -0.0515071  
C333     C      0.801310000000     0.461420000000     0.921910000000    -0.00664454 
C334     C      0.791000000000     0.477040000000     0.895010000000    -0.00564431 
C335     C      0.811790000000     0.502370000000     0.869120000000    -0.0532745  
C336     C      0.843290000000     0.513040000000     0.872930000000    -0.00609826 
C337     C      0.836710000000     0.511490000000     0.634160000000    -0.0068596  
C338     C      0.806130000000     0.494640000000     0.648780000000    -0.0522732  
C339     C      0.786440000000     0.465940000000     0.629040000000    -0.00683239 
C340     C      0.797310000000     0.454370000000     0.595370000000    -0.00669184 
C341     C      0.827880000000     0.471540000000     0.580560000000    -0.0524693  
C342     C      0.847380000000     0.500190000000     0.600360000000    -0.00662202 
C343     C      0.804680000000     0.799320000000     0.520970000000    -0.00655178 
C344     C      0.836390000000     0.812090000000     0.526950000000    -0.0527316  
C345     C      0.856680000000     0.838480000000     0.502510000000    -0.00622866 
C346     C      0.845510000000     0.852920000000     0.474780000000    -0.00562179 
C347     C      0.813830000000     0.841480000000     0.471520000000    -0.0535338  
C348     C      0.793500000000     0.814010000000     0.493730000000    -0.00534478 
C349     C      0.809230000000     0.804670000000     0.757230000000    -0.00712729 
C350     C      0.840540000000     0.820650000000     0.746150000000    -0.0520367  
C351     C      0.860220000000     0.848190000000     0.768750000000    -0.00699633 
C352     C      0.848650000000     0.859440000000     0.801880000000    -0.00655218 
C353     C      0.817340000000     0.843060000000     0.813250000000    -0.0527373  
C354     C      0.797830000000     0.815640000000     0.790470000000    -0.0063847  
C355     C      0.815110000000     0.663670000000     0.657650000000    -0.00672201 
C356     C      0.836320000000     0.688580000000     0.683800000000    -0.0519579  
C357     C      0.846050000000     0.682760000000     0.725000000000    -0.0068552  
C358     C      0.834790000000     0.652660000000     0.739750000000    -0.00667617 
C359     C      0.813560000000     0.627760000000     0.713600000000    -0.0520154  
C360     C      0.803850000000     0.633590000000     0.672390000000    -0.00680518 
C361     C      0.987240000000     0.181620000000     0.032190000000    -0.00649076 
C362     C      0.007820000000     0.170820000000     0.028020000000    -0.053239   
C363     C      0.003340000000     0.145850000000     0.054460000000    -0.00555481 
C364     C      0.977700000000     0.130710000000     0.082360000000    -0.00651832 
C365     C      0.955840000000     0.140030000000     0.083880000000    -0.0522066  
C366     C      0.961350000000     0.166230000000     0.059680000000    -0.00630869 
C367     C      0.177440000000     0.182760000000     0.013100000000    -0.00617467 
C368     C      0.166270000000     0.151160000000     0.016660000000    -0.0529888  
C369     C      0.140880000000     0.130740000000     0.990520000000    -0.00582874 
C370     C      0.125710000000     0.141560000000     0.963600000000    -0.00652144 
C371     C      0.135360000000     0.172920000000     0.962960000000    -0.0514182  
C372     C      0.161950000000     0.193530000000     0.986770000000    -0.00647669 
C373     C      0.304680000000     0.508680000000     0.671010000000    -0.00603465 
C374     C      0.299150000000     0.482820000000     0.696090000000    -0.0534888  
C375     C      0.318950000000     0.471140000000     0.691010000000    -0.00630669 
C376     C      0.345100000000     0.486460000000     0.664030000000    -0.00627921 
C377     C      0.351660000000     0.513470000000     0.641230000000    -0.0523337  
C378     C      0.330580000000     0.523750000000     0.643600000000    -0.00627566 
C379     C      0.144680000000     0.457010000000     0.730470000000    -0.00660378 
C380     C      0.169190000000     0.477370000000     0.758050000000    -0.051575   
C381     C      0.176410000000     0.508030000000     0.760980000000    -0.00657068 
C382     C      0.161140000000     0.518680000000     0.733910000000    -0.00616677 
C383     C      0.138150000000     0.498790000000     0.703840000000    -0.0520451  
C384     C      0.129180000000     0.467580000000     0.703810000000    -0.00633141 
C385     C      0.169660000000     0.332620000000     0.821480000000    -0.00669648 
C386     C      0.173160000000     0.357060000000     0.848330000000    -0.0519343  
C387     C      0.156770000000     0.350530000000     0.888930000000    -0.00682875 
C388     C      0.137260000000     0.320190000000     0.902370000000    -0.00671937 
C389     C      0.133730000000     0.295760000000     0.875470000000    -0.0519255  
C390     C      0.150140000000     0.302290000000     0.834900000000    -0.0068364  
C391     C      0.651340000000     0.134060000000     0.869490000000    -0.00613586 
C392     C      0.672730000000     0.165550000000     0.866410000000    -0.0531395  
C393     C      0.668730000000     0.186140000000     0.893280000000    -0.00561156 
C394     C      0.642750000000     0.175670000000     0.920420000000    -0.00662464 
C395     C      0.620070000000     0.144490000000     0.920560000000    -0.051481   
C396     C      0.625100000000     0.123640000000     0.896060000000    -0.00656472 
C397     C      0.789830000000     0.312500000000     0.803340000000    -0.00663731 
C398     C      0.799530000000     0.290940000000     0.802030000000    -0.0513398  
C399     C      0.826010000000     0.296980000000     0.825910000000    -0.0066412  
C400     C      0.841280000000     0.323060000000     0.853020000000    -0.0060147  
C401     C      0.830020000000     0.343250000000     0.857260000000    -0.0532275  
C402     C      0.804800000000     0.338300000000     0.831010000000    -0.00567992 
C403     C      0.991370000000     0.138050000000     0.466730000000    -0.00689703 
C404     C      0.013050000000     0.169540000000     0.466360000000    -0.0514062  
C405     C      0.006810000000     0.189720000000     0.490390000000    -0.00616718 
C406     C      0.980290000000     0.178420000000     0.516570000000    -0.00654396 
C407     C      0.959870000000     0.146710000000     0.519760000000    -0.0530603  
C408     C      0.965140000000     0.126710000000     0.493520000000    -0.00576063 
C409     C      0.833960000000     0.995090000000     0.587450000000    -0.00702972 
C410     C      0.829820000000     0.019960000000     0.577890000000    -0.0510088  
C411     C      0.808960000000     0.016720000000     0.544060000000    -0.00685016 
C412     C      0.794330000000     0.990090000000     0.518040000000    -0.00626745 
C413     C      0.800370000000     0.966190000000     0.525190000000    -0.0524606  
C414     C      0.819410000000     0.968460000000     0.561270000000    -0.00575863 
C415     C      0.971610000000     0.169170000000     0.755870000000    -0.00648541 
C416     C      0.960340000000     0.139550000000     0.738420000000    -0.0525252  
C417     C      0.972030000000     0.121500000000     0.755180000000    -0.00643513 
C418     C      0.994790000000     0.133090000000     0.788590000000    -0.00754352 
C419     C      0.005820000000     0.162700000000     0.806110000000    -0.051543   
C420     C      0.993900000000     0.180500000000     0.789410000000    -0.00750312 
C421     C      0.817720000000     0.133170000000     0.716170000000    -0.00697819 
C422     C      0.833260000000     0.143400000000     0.674930000000    -0.0518697  
C423     C      0.829660000000     0.164820000000     0.649640000000    -0.00681466 
C424     C      0.810920000000     0.175810000000     0.665270000000    -0.00668722 
C425     C      0.795440000000     0.165650000000     0.706550000000    -0.0521976  
C426     C      0.799030000000     0.144200000000     0.731830000000    -0.00661201 
C427     C      0.339880000000     0.816860000000     0.735400000000    -0.006026   
C428     C      0.342820000000     0.838970000000     0.703950000000    -0.0520969  
C429     C      0.320320000000     0.847430000000     0.702700000000    -0.00610615 
C430     C      0.294150000000     0.832250000000     0.729620000000    -0.00675063 
C431     C      0.290130000000     0.808530000000     0.758620000000    -0.0514761  
C432     C      0.313830000000     0.801870000000     0.762670000000    -0.00670443 
C433     C      0.457920000000     0.803170000000     0.645350000000    -0.00602792 
C434     C      0.467910000000     0.834590000000     0.643010000000    -0.0528332  
C435     C      0.494800000000     0.855540000000     0.665940000000    -0.00604978 
C436     C      0.510260000000     0.845100000000     0.693040000000    -0.00650744 
C437     C      0.498840000000     0.813530000000     0.698080000000    -0.0532041  
C438     C      0.473130000000     0.792730000000     0.672860000000    -0.00622079 
C439     C      0.645990000000     0.127900000000     0.360100000000    -0.00598853 
C440     C      0.624740000000     0.137990000000     0.359070000000    -0.0538155  
C441     C      0.629750000000     0.161780000000     0.329490000000    -0.00537631 
C442     C      0.656480000000     0.176540000000     0.303640000000    -0.00685413 
C443     C      0.678880000000     0.168050000000     0.307410000000    -0.0512194  
C444     C      0.672930000000     0.142940000000     0.334730000000    -0.00677063 
C445     C      0.457030000000     0.136380000000     0.369720000000    -0.00607889 
C446     C      0.469270000000     0.168230000000     0.367770000000    -0.0532107  
C447     C      0.494570000000     0.187400000000     0.394970000000    -0.00557429 
C448     C      0.508600000000     0.175130000000     0.421420000000    -0.00659356 
C449     C      0.497880000000     0.143520000000     0.420510000000    -0.0513192  
C450     C      0.471380000000     0.124150000000     0.395580000000    -0.00649872 
C451     C      0.629500000000     0.128720000000     0.602000000000    -0.00638623 
C452     C      0.622540000000     0.148710000000     0.579080000000    -0.0528295  
C453     C      0.638280000000     0.179980000000     0.590680000000    -0.00656591 
C454     C      0.660960000000     0.191040000000     0.624160000000    -0.00686586 
C455     C      0.667900000000     0.170900000000     0.646850000000    -0.0523185  
C456     C      0.651740000000     0.139630000000     0.635570000000    -0.00698475 
C457     C      0.462050000000     0.981650000000     0.567750000000    -0.00697317 
C458     C      0.457990000000     0.956750000000     0.541510000000    -0.0522991  
C459     C      0.472070000000     0.962500000000     0.499030000000    -0.00681618 
C460     C      0.490260000000     0.992530000000     0.483450000000    -0.00670891 
C461     C      0.494750000000     0.017460000000     0.509970000000    -0.0518581  
C462     C      0.480230000000     0.011700000000     0.552120000000    -0.00654006 
C463     C      0.992870000000     0.802850000000     0.535510000000    -0.00641608 
C464     C      0.013980000000     0.834470000000     0.533670000000    -0.0534849  
C465     C      0.009790000000     0.854250000000     0.562160000000    -0.00541983 
C466     C      0.983910000000     0.842880000000     0.589760000000    -0.00709099 
C467     C      0.961560000000     0.811580000000     0.588890000000    -0.051359   
C468     C      0.966790000000     0.791540000000     0.562650000000    -0.00666595 
C469     C      0.167390000000     0.972000000000     0.491020000000    -0.00627122 
C470     C      0.140700000000     0.964790000000     0.466800000000    -0.0515062  
C471     C      0.130300000000     0.985810000000     0.466440000000    -0.00668941 
C472     C      0.144750000000     0.012210000000     0.492990000000    -0.0055034  
C473     C      0.170130000000     0.018290000000     0.519750000000    -0.052816   
C474     C      0.182140000000     0.998670000000     0.517010000000    -0.00651716 
C475     C      0.297140000000     0.801430000000     0.162580000000    -0.00597428 
C476     C      0.295140000000     0.819210000000     0.197360000000    -0.0520504  
C477     C      0.318770000000     0.849810000000     0.202250000000    -0.00600716 
C478     C      0.345000000000     0.861590000000     0.175420000000    -0.00687151 
C479     C      0.348040000000     0.843070000000     0.142960000000    -0.0514099  
C480     C      0.323330000000     0.813290000000     0.135520000000    -0.00668778 
C481     C      0.181690000000     0.662420000000     0.252140000000    -0.00567467 
C482     C      0.170570000000     0.682780000000     0.255550000000    -0.0536625  
C483     C      0.142880000000     0.675360000000     0.234070000000    -0.00544284 
C484     C      0.127590000000     0.649010000000     0.207450000000    -0.0066839  
C485     C      0.140000000000     0.629910000000     0.201400000000    -0.0528857  
C486     C      0.166660000000     0.636350000000     0.225070000000    -0.00639578 
C487     C      0.347990000000     0.812330000000     0.441370000000    -0.00667782 
C488     C      0.338600000000     0.811680000000     0.486000000000    -0.0529017  
C489     C      0.307130000000     0.798210000000     0.495410000000    -0.00632845 
C490     C      0.285580000000     0.786950000000     0.460660000000    -0.00670221 
C491     C      0.295110000000     0.789280000000     0.415750000000    -0.0530064  
C492     C      0.326440000000     0.801400000000     0.406520000000    -0.00625063 
C493     C      0.162560000000     0.807070000000     0.394300000000    -0.00681943 
C494     C      0.177740000000     0.815840000000     0.352620000000    -0.0522057  
C495     C      0.174610000000     0.837010000000     0.325930000000    -0.0067914  
C496     C      0.156320000000     0.848840000000     0.340360000000    -0.00672129 
C497     C      0.140810000000     0.839730000000     0.381770000000    -0.0521257  
C498     C      0.144300000000     0.818890000000     0.408720000000    -0.00650477 
C499     C      0.660070000000     0.520020000000     0.372920000000    -0.0060088  
C500     C      0.679610000000     0.507890000000     0.370510000000    -0.0533231  
C501     C      0.673290000000     0.482470000000     0.397350000000    -0.00553612 
C502     C      0.646840000000     0.468220000000     0.423850000000    -0.00654313 
C503     C      0.626000000000     0.478830000000     0.423340000000    -0.0513265  
C504     C      0.633350000000     0.505460000000     0.398820000000    -0.00651434 
C505     C      0.832370000000     0.524890000000     0.333830000000    -0.00676017 
C506     C      0.806340000000     0.505120000000     0.308290000000    -0.0512843  
C507     C      0.796750000000     0.473780000000     0.306660000000    -0.00679048 
C508     C      0.811440000000     0.462080000000     0.332860000000    -0.00554422 
C509     C      0.836260000000     0.481580000000     0.360610000000    -0.0534568  
C510     C      0.847350000000     0.513250000000     0.359500000000    -0.00605466 
C511     C      0.972000000000     0.836380000000     0.994280000000    -0.00539795 
C512     C      0.966790000000     0.811220000000     0.020900000000    -0.0532687  
C513     C      0.987080000000     0.800020000000     0.017650000000    -0.00617228 
C514     C      0.013490000000     0.815310000000     0.991200000000    -0.00621428 
C515     C      0.019760000000     0.841740000000     0.966970000000    -0.051114   
C516     C      0.998140000000     0.851360000000     0.967230000000    -0.00705721 
C517     C      0.847990000000     0.841020000000     0.087140000000    -0.0068545  
C518     C      0.839290000000     0.809900000000     0.085430000000    -0.051388   
C519     C      0.813500000000     0.789640000000     0.059840000000    -0.00682576 
C520     C      0.797940000000     0.800620000000     0.034130000000    -0.00616867 
C521     C      0.808190000000     0.832120000000     0.033070000000    -0.0536843  
C522     C      0.832720000000     0.852070000000     0.060940000000    -0.00571993 
C523     C      0.983900000000     0.804760000000     0.255160000000    -0.00725841 
C524     C      0.969960000000     0.821360000000     0.241240000000    -0.0521987  
C525     C      0.978570000000     0.849560000000     0.262070000000    -0.00721279 
C526     C      0.000800000000     0.860880000000     0.296210000000    -0.0061316  
C527     C      0.014360000000     0.843920000000     0.310370000000    -0.053019   
C528     C      0.005650000000     0.815790000000     0.289430000000    -0.00597816 
C529     C      0.828940000000     0.683660000000     0.222920000000    -0.00675469 
C530     C      0.843450000000     0.688830000000     0.180860000000    -0.0522358  
C531     C      0.839200000000     0.663550000000     0.155420000000    -0.00665572 
C532     C      0.820740000000     0.633720000000     0.171640000000    -0.0067788  
C533     C      0.806150000000     0.628550000000     0.213630000000    -0.0521089  
C534     C      0.810480000000     0.653830000000     0.239140000000    -0.00664509 
C535     C      0.656180000000     0.517070000000     0.857250000000    -0.00617829 
C536     C      0.634570000000     0.485600000000     0.859550000000    -0.0534208  
C537     C      0.638560000000     0.465180000000     0.832250000000    -0.00559546 
C538     C      0.664700000000     0.475760000000     0.805410000000    -0.00672427 
C539     C      0.687530000000     0.506890000000     0.805950000000    -0.051434   
C540     C      0.682550000000     0.527590000000     0.830940000000    -0.00657416 
C541     C      0.478530000000     0.353520000000     0.898390000000    -0.00657804 
C542     C      0.504530000000     0.359130000000     0.923210000000    -0.0512969  
C543     C      0.513180000000     0.336760000000     0.923900000000    -0.00669788 
C544     C      0.497690000000     0.310500000000     0.897250000000    -0.00550218 
C545     C      0.472980000000     0.305900000000     0.870040000000    -0.053303   
C546     C      0.462720000000     0.326990000000     0.872310000000    -0.00604119 
C547     C      0.645250000000     0.458270000000     0.097760000000    -0.00663334 
C548     C      0.634440000000     0.477090000000     0.081050000000    -0.0526217  
C549     C      0.645960000000     0.506500000000     0.099360000000    -0.00659949 
C550     C      0.667670000000     0.516920000000     0.133670000000    -0.00668334 
C551     C      0.678750000000     0.498360000000     0.150270000000    -0.0525512  
C552     C      0.667450000000     0.468930000000     0.131930000000    -0.00664605 
C553     C      0.340230000000     0.527340000000     0.223920000000    -0.00651364 
C554     C      0.347050000000     0.507340000000     0.200610000000    -0.0525449  
C555     C      0.328260000000     0.475590000000     0.206910000000    -0.00679063 
C556     C      0.301860000000     0.464030000000     0.233420000000    -0.00530443 
C557     C      0.294060000000     0.484030000000     0.254580000000    -0.0536478  
C558     C      0.314100000000     0.515800000000     0.250930000000    -0.00565111 
C559     C      0.498870000000     0.634310000000     0.179960000000    -0.00707173 
C560     C      0.478800000000     0.632130000000     0.145540000000    -0.0510942  
C561     C      0.475850000000     0.657730000000     0.136030000000    -0.00702292 
C562     C      0.490830000000     0.684080000000     0.162730000000    -0.00566092 
C563     C      0.509090000000     0.685350000000     0.199300000000    -0.0526449  
C564     C      0.513920000000     0.660660000000     0.206510000000    -0.00605687 
C565     C      0.335480000000     0.532050000000     0.965810000000    -0.00675001 
C566     C      0.346800000000     0.513780000000     0.983000000000    -0.0522263  
C567     C      0.334850000000     0.483860000000     0.966410000000    -0.00674709 
C568     C      0.312270000000     0.472420000000     0.933310000000    -0.00679026 
C569     C      0.300710000000     0.490440000000     0.916180000000    -0.0523137  
C570     C      0.312420000000     0.520380000000     0.932830000000    -0.00680851 
C571     C      0.488740000000     0.518410000000     0.005230000000    -0.0068472  
C572     C      0.472600000000     0.508000000000     0.045990000000    -0.0518966  
C573     C      0.475230000000     0.485880000000     0.071020000000    -0.00685676 
C574     C      0.493660000000     0.474470000000     0.055680000000    -0.00674438 
C575     C      0.509820000000     0.484890000000     0.014940000000    -0.051994   
C576     C      0.507150000000     0.506960000000     0.989850000000    -0.00677386 
Cd1      Cd     0.413730000000     0.542310000000     0.091760000000     0.511314   
Cd2      Cd     0.569170000000     0.450810000000     0.970420000000     0.510526   
Cd3      Cd     0.902700000000     0.782090000000     0.133010000000     0.510935   
Cd4      Cd     0.744940000000     0.535390000000     0.260150000000     0.510819   
Cd5      Cd     0.230980000000     0.774710000000     0.307150000000     0.509067   
Cd6      Cd     0.078970000000     0.871680000000     0.422220000000     0.510194   
Cd7      Cd     0.557820000000     0.111190000000     0.467390000000     0.510257   
Cd8      Cd     0.405500000000     0.862700000000     0.591240000000     0.509267   
Cd9      Cd     0.893650000000     0.110860000000     0.629260000000     0.511001   
Cd10     Cd     0.736230000000     0.199320000000     0.753490000000     0.510819   
Cd11     Cd     0.233950000000     0.451620000000     0.806990000000     0.510717   
Cd12     Cd     0.072150000000     0.201140000000     0.915920000000     0.510421   
Cd13     Cd     0.870270000000     0.782400000000     0.639170000000     0.510908   
Cd14     Cd     0.778730000000     0.533690000000     0.757700000000     0.510632   
Cd15     Cd     0.196590000000     0.116910000000     0.127820000000     0.511076   
Cd16     Cd     0.442330000000     0.206700000000     0.258030000000     0.5108     
Cd17     Cd     0.864580000000     0.443440000000     0.469260000000     0.510318   
Cd18     Cd     0.112910000000     0.535630000000     0.590460000000     0.509468   
Cd19     Cd     0.104960000000     0.199580000000     0.418110000000     0.510503   
Cd20     Cd     0.201780000000     0.450240000000     0.305760000000     0.509112   
Cd21     Cd     0.438460000000     0.869980000000     0.091110000000     0.511394   
Cd22     Cd     0.529050000000     0.117690000000     0.969470000000     0.510763   
Cd23     Cd     0.778500000000     0.868910000000     0.924350000000     0.510497   
Cd24     Cd     0.529640000000     0.780170000000     0.809730000000     0.510929   
Cd25     Cd     0.107730000000     0.563520000000     0.092260000000     0.511613   
Cd26     Cd     0.859490000000     0.406520000000     0.970460000000     0.510748   
Cd27     Cd     0.196750000000     0.081780000000     0.632140000000     0.510792   
Cd28     Cd     0.443490000000     0.241550000000     0.758290000000     0.510833   
Cd29     Cd     0.199160000000     0.743910000000     0.808660000000     0.510984   
Cd30     Cd     0.111930000000     0.904800000000     0.919850000000     0.510229   
Cd31     Cd     0.533060000000     0.418310000000     0.469790000000     0.51026    
Cd32     Cd     0.443270000000     0.575390000000     0.590500000000     0.509534   
Cd33     Cd     0.865170000000     0.077100000000     0.136950000000     0.50951    
Cd34     Cd     0.771260000000     0.230280000000     0.259810000000     0.510217   
Cd35     Cd     0.781560000000     0.900290000000     0.418400000000     0.50914    
Cd36     Cd     0.529110000000     0.751300000000     0.306630000000     0.509225   
H1       H      0.643190000000     0.790240000000     0.297600000000     0.0574587  
H2       H      0.614630000000     0.830370000000     0.401280000000     0.0580846  
H3       H      0.667690000000     0.861730000000     0.426010000000     0.0575912  
H4       H      0.696300000000     0.821640000000     0.322320000000     0.0580564  
H5       H      0.878930000000     0.039390000000     0.289600000000     0.0570627  
H6       H      0.814990000000     0.970690000000     0.197440000000     0.0568574  
H7       H      0.798310000000     0.932100000000     0.256300000000     0.0574439  
H8       H      0.862010000000     0.000640000000     0.348930000000     0.056798   
H9       H      0.777060000000     0.155600000000     0.154860000000     0.0574989  
H10      H      0.830740000000     0.175210000000     0.276300000000     0.0581992  
H11      H      0.850560000000     0.142890000000     0.249760000000     0.0575839  
H12      H      0.796930000000     0.123340000000     0.128280000000     0.0578724  
H13      H      0.498320000000     0.681410000000     0.527980000000     0.0569476  
H14      H      0.429640000000     0.614330000000     0.438860000000     0.0572038  
H15      H      0.447120000000     0.652840000000     0.379110000000     0.0565951  
H16      H      0.515570000000     0.719750000000     0.468710000000     0.0574223  
H17      H      0.528100000000     0.493490000000     0.574580000000     0.0574703  
H18      H      0.475670000000     0.475430000000     0.452150000000     0.0581339  
H19      H      0.456760000000     0.508610000000     0.478210000000     0.0575921  
H20      H      0.509150000000     0.526610000000     0.600680000000     0.0578941  
H21      H      0.135230000000     0.794030000000     0.795270000000     0.058309   
H22      H      0.193140000000     0.819110000000     0.912950000000     0.0573862  
H23      H      0.174340000000     0.852760000000     0.937350000000     0.0578866  
H24      H      0.116450000000     0.827600000000     0.819640000000     0.057566   
H25      H      0.523990000000     0.306940000000     0.638980000000     0.0568986  
H26      H      0.444630000000     0.317320000000     0.652470000000     0.0577308  
H27      H      0.464030000000     0.355560000000     0.593310000000     0.0574959  
H28      H      0.543830000000     0.345980000000     0.579370000000     0.0566071  
H29      H      0.120290000000     0.019500000000     0.757950000000     0.0570272  
H30      H      0.191980000000     0.999590000000     0.727380000000     0.057828   
H31      H      0.173310000000     0.961100000000     0.786120000000     0.057419   
H32      H      0.101200000000     0.980240000000     0.817220000000     0.056529   
H33      H      0.311940000000     0.137150000000     0.620900000000     0.0583648  
H34      H      0.275920000000     0.153830000000     0.742580000000     0.0575584  
H35      H      0.328040000000     0.186970000000     0.770170000000     0.0581867  
H36      H      0.364010000000     0.170240000000     0.648480000000     0.0575855  
H37      H      0.779680000000     0.341790000000     0.091240000000     0.0568991  
H38      H      0.858070000000     0.330080000000     0.075160000000     0.0577178  
H39      H      0.838960000000     0.292000000000     0.134510000000     0.0574345  
H40      H      0.760110000000     0.302890000000     0.151060000000     0.0566009  
H41      H      0.105340000000     0.632730000000     0.977460000000     0.0575493  
H42      H      0.191540000000     0.634290000000     0.980500000000     0.0567133  
H43      H      0.211870000000     0.674520000000     0.922530000000     0.0567015  
H44      H      0.125250000000     0.672100000000     0.919990000000     0.0575972  
H45      H      0.026880000000     0.490000000000     0.985780000000     0.0574989  
H46      H      0.992690000000     0.512740000000     0.104000000000     0.0582715  
H47      H      0.940260000000     0.480000000000     0.077400000000     0.0574961  
H48      H      0.974460000000     0.457310000000     0.959160000000     0.0582362  
H49      H      0.546890000000     0.702600000000     0.730250000000     0.0566694  
H50      H      0.455830000000     0.668440000000     0.783710000000     0.0582091  
H51      H      0.436570000000     0.623210000000     0.735730000000     0.0566409  
H52      H      0.527740000000     0.657270000000     0.682710000000     0.0579088  
H53      H      0.870910000000     0.027650000000     0.992800000000     0.0567256  
H54      H      0.780390000000     0.992930000000     0.048760000000     0.0580034  
H55      H      0.761380000000     0.946630000000     0.003450000000     0.0566296  
H56      H      0.851770000000     0.981420000000     0.947020000000     0.0580966  
H57      H      0.663330000000     0.805740000000     0.939530000000     0.0580933  
H58      H      0.697170000000     0.863110000000     0.821360000000     0.0574355  
H59      H      0.644640000000     0.844170000000     0.796480000000     0.0581814  
H60      H      0.610750000000     0.786790000000     0.914650000000     0.0574107  
H61      H      0.446270000000     0.117320000000     0.876030000000     0.0572677  
H62      H      0.538780000000     0.181960000000     0.833950000000     0.0563657  
H63      H      0.519670000000     0.208540000000     0.787620000000     0.0583885  
H64      H      0.427190000000     0.144220000000     0.830280000000     0.0567012  
H65      H      0.428610000000     0.802860000000     0.222210000000     0.0563935  
H66      H      0.521100000000     0.872940000000     0.188460000000     0.0574196  
H67      H      0.541060000000     0.847240000000     0.235180000000     0.0566541  
H68      H      0.448540000000     0.777450000000     0.269430000000     0.0572659  
H69      H      0.426110000000     0.786680000000     0.979680000000     0.0567207  
H70      H      0.511600000000     0.873110000000     0.978210000000     0.0574695  
H71      H      0.531570000000     0.853540000000     0.921310000000     0.0575239  
H72      H      0.446510000000     0.766690000000     0.922310000000     0.0567423  
H73      H      0.444970000000     0.950130000000     0.984390000000     0.0573734  
H74      H      0.502560000000     0.985050000000     0.102230000000     0.0582985  
H75      H      0.522150000000     0.037330000000     0.075630000000     0.0575234  
H76      H      0.464590000000     0.002450000000     0.957750000000     0.0583837  
H77      H      0.111830000000     0.449290000000     0.232980000000     0.0574161  
H78      H      0.195480000000     0.491710000000     0.155100000000     0.0573904  
H79      H      0.175390000000     0.517420000000     0.108770000000     0.0584548  
H80      H      0.091830000000     0.474990000000     0.186830000000     0.0573383  
H81      H      0.097190000000     0.135370000000     0.552750000000     0.0564603  
H82      H      0.189170000000     0.202670000000     0.511990000000     0.0572866  
H83      H      0.209540000000     0.177390000000     0.558740000000     0.0567621  
H84      H      0.117570000000     0.110390000000     0.600050000000     0.0583862  
H85      H      0.169260000000     0.314040000000     0.433430000000     0.0584308  
H86      H      0.109750000000     0.282020000000     0.317300000000     0.0571913  
H87      H      0.130450000000     0.334980000000     0.292520000000     0.0573385  
H88      H      0.189950000000     0.366800000000     0.408670000000     0.0583945  
H89      H      0.097900000000     0.617400000000     0.663050000000     0.0567119  
H90      H      0.190920000000     0.643920000000     0.627280000000     0.0579296  
H91      H      0.210000000000     0.688970000000     0.675370000000     0.056254   
H92      H      0.117030000000     0.662810000000     0.710720000000     0.05726    
H93      H      0.167120000000     0.484360000000     0.527810000000     0.0567317  
H94      H      0.161730000000     0.547730000000     0.436150000000     0.0571011  
H95      H      0.182200000000     0.530270000000     0.375850000000     0.0565362  
H96      H      0.187750000000     0.467190000000     0.467990000000     0.0575063  
H97      H      0.877680000000     0.362220000000     0.392120000000     0.0566982  
H98      H      0.786830000000     0.333010000000     0.442490000000     0.0582921  
H99      H      0.766220000000     0.286590000000     0.396850000000     0.0565425  
H100     H      0.857140000000     0.315570000000     0.347040000000     0.0572067  
H101     H      0.979730000000     0.502220000000     0.452870000000     0.0582911  
H102     H      0.944940000000     0.449180000000     0.574850000000     0.0574184  
H103     H      0.997340000000     0.468550000000     0.601000000000     0.0577859  
H104     H      0.032080000000     0.521520000000     0.478960000000     0.0576668  
H105     H      0.427520000000     0.286150000000     0.337360000000     0.0568441  
H106     H      0.518350000000     0.317710000000     0.284790000000     0.0584209  
H107     H      0.538310000000     0.363960000000     0.330630000000     0.0566021  
H108     H      0.447420000000     0.332620000000     0.382720000000     0.0572075  
H109     H      0.525140000000     0.219760000000     0.144720000000     0.0566682  
H110     H      0.438340000000     0.134660000000     0.142690000000     0.0575491  
H111     H      0.457010000000     0.115400000000     0.083490000000     0.057587   
H112     H      0.544240000000     0.200050000000     0.085000000000     0.0566953  
H113     H      0.106960000000     0.957600000000     0.060810000000     0.0568362  
H114     H      0.197030000000     0.994220000000     0.002240000000     0.0570502  
H115     H      0.215390000000     0.040850000000     0.046690000000     0.056947   
H116     H      0.125410000000     0.004090000000     0.105640000000     0.0584495  
H117     H      0.113430000000     0.100120000000     0.242940000000     0.0568086  
H118     H      0.196220000000     0.188910000000     0.239370000000     0.057689   
H119     H      0.176490000000     0.206750000000     0.299080000000     0.0574513  
H120     H      0.093250000000     0.118370000000     0.303120000000     0.056584   
H121     H      0.312120000000     0.181960000000     0.120240000000     0.0581666  
H122     H      0.275210000000     0.124880000000     0.238220000000     0.0575798  
H123     H      0.327010000000     0.144500000000     0.266940000000     0.0583126  
H124     H      0.363970000000     0.201600000000     0.148980000000     0.0574753  
H125     H      0.877840000000     0.504850000000     0.899610000000     0.0566396  
H126     H      0.784590000000     0.441070000000     0.939730000000     0.0582652  
H127     H      0.766580000000     0.468430000000     0.892960000000     0.0563297  
H128     H      0.859850000000     0.532520000000     0.853400000000     0.0572761  
H129     H      0.852490000000     0.533670000000     0.648630000000     0.0576441  
H130     H      0.762780000000     0.452390000000     0.639810000000     0.0567836  
H131     H      0.781730000000     0.432270000000     0.580520000000     0.0565983  
H132     H      0.871060000000     0.514000000000     0.589790000000     0.0575067  
H133     H      0.788500000000     0.778980000000     0.539350000000     0.0575471  
H134     H      0.881260000000     0.848710000000     0.506250000000     0.0564831  
H135     H      0.861730000000     0.874000000000     0.457990000000     0.0573932  
H136     H      0.768940000000     0.804560000000     0.491590000000     0.0566328  
H137     H      0.793420000000     0.783410000000     0.740480000000     0.0577918  
H138     H      0.884430000000     0.861060000000     0.760730000000     0.0569608  
H139     H      0.864250000000     0.880580000000     0.819090000000     0.0564698  
H140     H      0.773600000000     0.802480000000     0.798350000000     0.0573932  
H141     H      0.807140000000     0.667380000000     0.625760000000     0.0583531  
H142     H      0.862360000000     0.701470000000     0.745950000000     0.0574911  
H143     H      0.842730000000     0.648930000000     0.771640000000     0.0582079  
H144     H      0.787520000000     0.614900000000     0.651430000000     0.0575587  
H145     H      0.990140000000     0.200840000000     0.012270000000     0.0572329  
H146     H      0.018980000000     0.137170000000     0.052180000000     0.0565425  
H147     H      0.974140000000     0.110670000000     0.100710000000     0.0581998  
H148     H      0.944990000000     0.174050000000     0.060420000000     0.0567664  
H149     H      0.196960000000     0.199030000000     0.032830000000     0.0573192  
H150     H      0.131910000000     0.106260000000     0.992380000000     0.0563792  
H151     H      0.105310000000     0.125130000000     0.945590000000     0.058234   
H152     H      0.170020000000     0.217880000000     0.986670000000     0.0565249  
H153     H      0.289660000000     0.518050000000     0.674000000000     0.0563528  
H154     H      0.315230000000     0.451220000000     0.709880000000     0.0572626  
H155     H      0.360850000000     0.477890000000     0.662610000000     0.0567597  
H156     H      0.334950000000     0.544440000000     0.626330000000     0.0580042  
H157     H      0.138420000000     0.433170000000     0.727800000000     0.0566811  
H158     H      0.195130000000     0.524230000000     0.782010000000     0.0581421  
H159     H      0.168420000000     0.542840000000     0.734890000000     0.0566724  
H160     H      0.111510000000     0.451660000000     0.681120000000     0.0579362  
H161     H      0.181980000000     0.336900000000     0.790020000000     0.0582664  
H162     H      0.158980000000     0.368860000000     0.910390000000     0.0574113  
H163     H      0.124930000000     0.315910000000     0.933810000000     0.0582199  
H164     H      0.147910000000     0.283970000000     0.813420000000     0.0574863  
H165     H      0.653830000000     0.117670000000     0.849180000000     0.0573062  
H166     H      0.684990000000     0.210550000000     0.891780000000     0.0562406  
H167     H      0.639530000000     0.192260000000     0.939000000000     0.0582914  
H168     H      0.608080000000     0.099430000000     0.895800000000     0.0565752  
H169     H      0.769520000000     0.308470000000     0.785280000000     0.0583827  
H170     H      0.834110000000     0.280840000000     0.825290000000     0.0566001  
H171     H      0.860700000000     0.326320000000     0.872810000000     0.0572957  
H172     H      0.795770000000     0.353630000000     0.833380000000     0.0562767  
H173     H      0.995560000000     0.121960000000     0.448550000000     0.0580876  
H174     H      0.023070000000     0.214150000000     0.490500000000     0.0564845  
H175     H      0.976800000000     0.194360000000     0.536410000000     0.0572066  
H176     H      0.949640000000     0.102150000000     0.495130000000     0.0561471  
H177     H      0.849780000000     0.996830000000     0.613440000000     0.0584313  
H178     H      0.805060000000     0.035380000000     0.536140000000     0.0572796  
H179     H      0.779670000000     0.988990000000     0.490680000000     0.0573679  
H180     H      0.824390000000     0.950350000000     0.567800000000     0.0573553  
H181     H      0.963100000000     0.183680000000     0.743740000000     0.0574447  
H182     H      0.963860000000     0.098640000000     0.742180000000     0.0566019  
H183     H      0.003480000000     0.118800000000     0.801030000000     0.0570794  
H184     H      0.001890000000     0.203410000000     0.802130000000     0.0578448  
H185     H      0.820060000000     0.116700000000     0.736490000000     0.0575404  
H186     H      0.841340000000     0.173160000000     0.617760000000     0.0582726  
H187     H      0.808620000000     0.192320000000     0.644970000000     0.0575404  
H188     H      0.787380000000     0.135890000000     0.763740000000     0.0581349  
H189     H      0.356960000000     0.809990000000     0.737350000000     0.056847   
H190     H      0.321960000000     0.864450000000     0.678970000000     0.0578827  
H191     H      0.276380000000     0.838070000000     0.726050000000     0.0568566  
H192     H      0.311420000000     0.783780000000     0.784800000000     0.0582568  
H193     H      0.437350000000     0.786460000000     0.627970000000     0.0578294  
H194     H      0.503150000000     0.879920000000     0.664550000000     0.056674   
H195     H      0.530050000000     0.861650000000     0.712040000000     0.0571794  
H196     H      0.463950000000     0.768260000000     0.675830000000     0.0563751  
H197     H      0.642740000000     0.109600000000     0.382520000000     0.0571627  
H198     H      0.613650000000     0.169920000000     0.327800000000     0.0565542  
H199     H      0.660400000000     0.195760000000     0.282810000000     0.0585086  
H200     H      0.689700000000     0.135740000000     0.338050000000     0.0567819  
H201     H      0.437540000000     0.121050000000     0.349130000000     0.0572898  
H202     H      0.504360000000     0.212040000000     0.394330000000     0.0563568  
H203     H      0.528960000000     0.190620000000     0.440330000000     0.0584188  
H204     H      0.462500000000     0.099660000000     0.394480000000     0.0565756  
H205     H      0.617770000000     0.104500000000     0.593940000000     0.0574843  
H206     H      0.633460000000     0.195920000000     0.573380000000     0.0565433  
H207     H      0.672970000000     0.215240000000     0.632320000000     0.0569537  
H208     H      0.656480000000     0.123470000000     0.652390000000     0.0577823  
H209     H      0.451460000000     0.977960000000     0.600580000000     0.057681   
H210     H      0.469330000000     0.943810000000     0.477950000000     0.0577546  
H211     H      0.501110000000     0.996200000000     0.450820000000     0.0581616  
H212     H      0.483240000000     0.030420000000     0.573380000000     0.057353   
H213     H      0.995530000000     0.787040000000     0.514040000000     0.0572447  
H214     H      0.025820000000     0.878720000000     0.561690000000     0.0565412  
H215     H      0.980540000000     0.858880000000     0.609660000000     0.0583498  
H216     H      0.950030000000     0.767250000000     0.561510000000     0.0567417  
H217     H      0.176040000000     0.956290000000     0.491650000000     0.0564304  
H218     H      0.109820000000     0.980900000000     0.448040000000     0.0584204  
H219     H      0.135140000000     0.027090000000     0.494220000000     0.0562427  
H220     H      0.201690000000     0.002800000000     0.537230000000     0.0576803  
H221     H      0.279200000000     0.777810000000     0.157780000000     0.0572568  
H222     H      0.317850000000     0.864150000000     0.228560000000     0.0576846  
H223     H      0.363550000000     0.884740000000     0.181670000000     0.0571289  
H224     H      0.324950000000     0.798520000000     0.110650000000     0.0583938  
H225     H      0.202910000000     0.667470000000     0.268380000000     0.0574324  
H226     H      0.133670000000     0.690550000000     0.236320000000     0.0566707  
H227     H      0.107060000000     0.644580000000     0.189640000000     0.0574058  
H228     H      0.176600000000     0.621880000000     0.221300000000     0.0566187  
H229     H      0.372070000000     0.822540000000     0.433120000000     0.0571754  
H230     H      0.299190000000     0.797200000000     0.529550000000     0.0563551  
H231     H      0.261610000000     0.777700000000     0.468850000000     0.0574422  
H232     H      0.334450000000     0.803360000000     0.372220000000     0.0563693  
H233     H      0.164560000000     0.790840000000     0.415700000000     0.0580603  
H234     H      0.186050000000     0.844240000000     0.293680000000     0.0574303  
H235     H      0.154100000000     0.864880000000     0.318830000000     0.0572381  
H236     H      0.132680000000     0.811430000000     0.440800000000     0.0582346  
H237     H      0.664380000000     0.539590000000     0.352620000000     0.0573376  
H238     H      0.688090000000     0.472760000000     0.396370000000     0.0562977  
H239     H      0.641800000000     0.447770000000     0.442440000000     0.0584154  
H240     H      0.617770000000     0.514250000000     0.398050000000     0.0565847  
H241     H      0.840390000000     0.549200000000     0.335500000000     0.056772   
H242     H      0.776800000000     0.457980000000     0.287250000000     0.0584253  
H243     H      0.802520000000     0.437570000000     0.332830000000     0.0564174  
H244     H      0.866450000000     0.528830000000     0.380530000000     0.0571621  
H245     H      0.956600000000     0.845370000000     0.995900000000     0.0561706  
H246     H      0.983630000000     0.780660000000     0.037750000000     0.0573712  
H247     H      0.029690000000     0.807270000000     0.991380000000     0.0565093  
H248     H      0.002350000000     0.871630000000     0.948880000000     0.0585833  
H249     H      0.867740000000     0.857180000000     0.106610000000     0.0582993  
H250     H      0.806140000000     0.765480000000     0.058120000000     0.0567769  
H251     H      0.779080000000     0.784700000000     0.013040000000     0.0570689  
H252     H      0.840980000000     0.876450000000     0.061030000000     0.0562986  
H253     H      0.977790000000     0.782950000000     0.239850000000     0.0577383  
H254     H      0.968290000000     0.862900000000     0.251870000000     0.0569248  
H255     H      0.007010000000     0.882590000000     0.311920000000     0.0565465  
H256     H      0.015700000000     0.802190000000     0.299480000000     0.0574246  
H257     H      0.831810000000     0.702660000000     0.243390000000     0.0575302  
H258     H      0.850110000000     0.666790000000     0.122930000000     0.0582162  
H259     H      0.817810000000     0.614710000000     0.151140000000     0.0574975  
H260     H      0.799510000000     0.650610000000     0.271590000000     0.0582776  
H261     H      0.653700000000     0.533340000000     0.877870000000     0.0572453  
H262     H      0.622140000000     0.440800000000     0.833140000000     0.0564011  
H263     H      0.667870000000     0.459280000000     0.786460000000     0.0583088  
H264     H      0.699690000000     0.551770000000     0.831760000000     0.0566315  
H265     H      0.471220000000     0.370290000000     0.897480000000     0.0565735  
H266     H      0.533090000000     0.340440000000     0.942750000000     0.058453   
H267     H      0.505960000000     0.294490000000     0.896380000000     0.0562405  
H268     H      0.443740000000     0.324030000000     0.851720000000     0.0573051  
H269     H      0.636840000000     0.435530000000     0.084110000000     0.0566896  
H270     H      0.638100000000     0.521570000000     0.087310000000     0.0574756  
H271     H      0.675910000000     0.539720000000     0.147000000000     0.0575291  
H272     H      0.675520000000     0.454100000000     0.144250000000     0.0567112  
H273     H      0.354460000000     0.551940000000     0.219930000000     0.0566057  
H274     H      0.332980000000     0.459650000000     0.189370000000     0.057481   
H275     H      0.286910000000     0.439410000000     0.235860000000     0.0566172  
H276     H      0.308750000000     0.531780000000     0.266900000000     0.0572852  
H277     H      0.501850000000     0.615060000000     0.187870000000     0.0573191  
H278     H      0.460660000000     0.656800000000     0.109620000000     0.0584676  
H279     H      0.486780000000     0.702810000000     0.156160000000     0.0573558  
H280     H      0.527960000000     0.660960000000     0.234230000000     0.0572831  
H281     H      0.344170000000     0.555150000000     0.978170000000     0.0567354  
H282     H      0.343050000000     0.469160000000     0.978870000000     0.0575543  
H283     H      0.303770000000     0.449280000000     0.921250000000     0.0575649  
H284     H      0.304040000000     0.534840000000     0.920040000000     0.0567031  
H285     H      0.487150000000     0.535410000000     0.985120000000     0.0574437  
H286     H      0.463070000000     0.477370000000     0.102520000000     0.0583232  
H287     H      0.495260000000     0.457480000000     0.075820000000     0.057512   
H288     H      0.519330000000     0.515480000000     0.958370000000     0.058133   
O1       O      0.386160000000     0.552780000000     0.030400000000    -0.225285   
O2       O      0.381660000000     0.503470000000     0.149070000000    -0.2256     
O3       O      0.440450000000     0.599140000000     0.091810000000    -0.224914   
O4       O      0.450390000000     0.540050000000     0.040210000000    -0.233538   
O5       O      0.437480000000     0.510370000000     0.098060000000    -0.225525   
O6       O      0.456280000000     0.577840000000     0.139030000000    -0.233752   
O7       O      0.375030000000     0.506160000000     0.040610000000    -0.235386   
O8       O      0.381460000000     0.545890000000     0.149670000000    -0.234795   
O9       O      0.596030000000     0.439330000000     0.031450000000    -0.225516   
O10      O      0.544390000000     0.481830000000     0.962440000000    -0.225802   
O11      O      0.546220000000     0.394610000000     0.970150000000    -0.224383   
O12      O      0.603220000000     0.490870000000     0.915650000000    -0.227068   
O13      O      0.597570000000     0.446170000000     0.907040000000    -0.235171   
O14      O      0.523350000000     0.412810000000     0.930550000000    -0.232496   
O15      O      0.607490000000     0.486160000000     0.023000000000    -0.235109   
O16      O      0.532980000000     0.453790000000     0.021950000000    -0.233223   
O17      O      0.929500000000     0.819460000000     0.195530000000    -0.22542    
O18      O      0.934280000000     0.774420000000     0.076330000000    -0.226107   
O19      O      0.880830000000     0.816010000000     0.132220000000    -0.224752   
O20      O      0.867510000000     0.743510000000     0.186610000000    -0.233896   
O21      O      0.876830000000     0.725890000000     0.126410000000    -0.226045   
O22      O      0.857110000000     0.774460000000     0.093200000000    -0.232763   
O23      O      0.943410000000     0.786590000000     0.181290000000    -0.235434   
O24      O      0.932000000000     0.815540000000     0.070320000000    -0.234913   
O25      O      0.765550000000     0.500370000000     0.261010000000    -0.224831   
O26      O      0.713430000000     0.544160000000     0.315570000000    -0.226496   
O27      O      0.716970000000     0.497690000000     0.198340000000    -0.22546    
O28      O      0.781320000000     0.573820000000     0.207380000000    -0.233467   
O29      O      0.772060000000     0.591550000000     0.267550000000    -0.225778   
O30      O      0.706540000000     0.533440000000     0.209290000000    -0.235384   
O31      O      0.789760000000     0.541560000000     0.300660000000    -0.23271    
O32      O      0.714310000000     0.502350000000     0.322460000000    -0.234959   
O33      O      0.281810000000     0.790300000000     0.338810000000    -0.232742   
O34      O      0.210190000000     0.809610000000     0.299620000000    -0.228624   
O35      O      0.213650000000     0.719790000000     0.298620000000    -0.231791   
O36      O      0.269300000000     0.819900000000     0.264800000000    -0.225517   
O37      O      0.252800000000     0.776080000000     0.232920000000    -0.231725   
O38      O      0.184080000000     0.734600000000     0.270760000000    -0.233438   
O39      O      0.244390000000     0.769110000000     0.385440000000    -0.227303   
O40      O      0.198520000000     0.782740000000     0.360090000000    -0.230155   
O41      O      0.099290000000     0.927480000000     0.421250000000    -0.224511   
O42      O      0.105620000000     0.842790000000     0.432880000000    -0.226436   
O43      O      0.050030000000     0.881640000000     0.362730000000    -0.226086   
O44      O      0.051090000000     0.875030000000     0.487640000000    -0.235136   
O45      O      0.044580000000     0.830370000000     0.475140000000    -0.227949   
O46      O      0.043440000000     0.836280000000     0.366620000000    -0.23449    
O47      O      0.124610000000     0.911680000000     0.460070000000    -0.232247   
O48      O      0.116320000000     0.869450000000     0.372030000000    -0.232693   
O49      O      0.588380000000     0.151480000000     0.524960000000    -0.226034   
O50      O      0.592580000000     0.103470000000     0.416990000000    -0.228255   
O51      O      0.538150000000     0.147010000000     0.467690000000    -0.224708   
O52      O      0.520010000000     0.072130000000     0.518140000000    -0.232447   
O53      O      0.529920000000     0.055170000000     0.457720000000    -0.226258   
O54      O      0.513310000000     0.106190000000     0.427440000000    -0.232185   
O55      O      0.591410000000     0.110630000000     0.525250000000    -0.234321   
O56      O      0.586700000000     0.141620000000     0.401760000000    -0.235136   
O57      O      0.389650000000     0.836520000000     0.516930000000    -0.226339   
O58      O      0.427340000000     0.918870000000     0.597060000000    -0.228062   
O59      O      0.424800000000     0.826890000000     0.598910000000    -0.229148   
O60      O      0.382240000000     0.836940000000     0.662370000000    -0.232159   
O61      O      0.370290000000     0.870060000000     0.640220000000    -0.224096   
O62      O      0.452720000000     0.871550000000     0.628250000000    -0.233425   
O63      O      0.353930000000     0.833920000000     0.559050000000    -0.233888   
O64      O      0.436130000000     0.902360000000     0.535520000000    -0.232649   
O65      O      0.868480000000     0.054220000000     0.630180000000    -0.224763   
O66      O      0.926320000000     0.150620000000     0.573350000000    -0.226108   
O67      O      0.921810000000     0.100700000000     0.689980000000    -0.225542   
O68      O      0.856820000000     0.112600000000     0.680980000000    -0.233584   
O69      O      0.868440000000     0.141500000000     0.622400000000    -0.225735   
O70      O      0.931840000000     0.147070000000     0.681100000000    -0.235222   
O71      O      0.850790000000     0.074100000000     0.583510000000    -0.233276   
O72      O      0.924610000000     0.107360000000     0.568960000000    -0.234675   
O73      O      0.757840000000     0.255330000000     0.755200000000    -0.224433   
O74      O      0.761550000000     0.168770000000     0.760250000000    -0.22638    
O75      O      0.710210000000     0.209840000000     0.690140000000    -0.225467   
O76      O      0.708370000000     0.204430000000     0.817000000000    -0.234849   
O77      O      0.703990000000     0.160090000000     0.810350000000    -0.225802   
O78      O      0.694090000000     0.162770000000     0.707100000000    -0.235464   
O79      O      0.782260000000     0.237750000000     0.792390000000    -0.232748   
O80      O      0.771460000000     0.196040000000     0.700190000000    -0.233805   
O81      O      0.209990000000     0.483930000000     0.807150000000    -0.224668   
O82      O      0.209050000000     0.395740000000     0.797880000000    -0.225547   
O83      O      0.261830000000     0.490000000000     0.868220000000    -0.225706   
O84      O      0.263900000000     0.486150000000     0.745760000000    -0.235445   
O85      O      0.266630000000     0.445240000000     0.750700000000    -0.226543   
O86      O      0.272100000000     0.454000000000     0.858950000000    -0.235171   
O87      O      0.189130000000     0.443700000000     0.765070000000    -0.233337   
O88      O      0.197120000000     0.411580000000     0.857620000000    -0.233242   
O89      O      0.093700000000     0.166850000000     0.916430000000    -0.224348   
O90      O      0.043580000000     0.167800000000     0.979070000000    -0.235453   
O91      O      0.044760000000     0.163280000000     0.854010000000    -0.225548   
O92      O      0.109120000000     0.241250000000     0.865520000000    -0.233227   
O93      O      0.097870000000     0.257040000000     0.925940000000    -0.225932   
O94      O      0.033710000000     0.198650000000     0.864280000000    -0.234834   
O95      O      0.117930000000     0.208600000000     0.954850000000    -0.232629   
O96      O      0.039030000000     0.207510000000     0.971520000000    -0.226673   
O97      O      0.880080000000     0.818520000000     0.703180000000    -0.225349   
O98      O      0.839520000000     0.726310000000     0.631480000000    -0.225975   
O99      O      0.926540000000     0.816890000000     0.637730000000    -0.224709   
O100     O      0.874830000000     0.816880000000     0.578240000000    -0.234896   
O101     O      0.831690000000     0.774580000000     0.581100000000    -0.225414   
O102     O      0.908170000000     0.775610000000     0.598090000000    -0.23317    
O103     O      0.833200000000     0.786570000000     0.685740000000    -0.235555   
O104     O      0.867030000000     0.743270000000     0.691460000000    -0.233559   
O105     O      0.767630000000     0.496340000000     0.694980000000    -0.22551    
O106     O      0.817700000000     0.539980000000     0.814270000000    -0.226341   
O107     O      0.722330000000     0.500300000000     0.758480000000    -0.224464   
O108     O      0.782580000000     0.573140000000     0.705820000000    -0.233508   
O109     O      0.810090000000     0.589820000000     0.765850000000    -0.225669   
O110     O      0.741300000000     0.541700000000     0.797930000000    -0.232776   
O111     O      0.814780000000     0.529850000000     0.708130000000    -0.235247   
O112     O      0.773250000000     0.499500000000     0.819760000000    -0.235121   
O113     O      0.164720000000     0.060410000000     0.127610000000    -0.224796   
O114     O      0.252880000000     0.148760000000     0.122530000000    -0.225739   
O115     O      0.157960000000     0.105140000000     0.188780000000    -0.225267   
O116     O      0.162490000000     0.112220000000     0.066050000000    -0.234895   
O117     O      0.203650000000     0.156180000000     0.071320000000    -0.226304   
O118     O      0.192430000000     0.152330000000     0.178150000000    -0.235375   
O119     O      0.205000000000     0.080480000000     0.085560000000    -0.233125   
O120     O      0.234880000000     0.120210000000     0.181380000000    -0.233814   
O121     O      0.481000000000     0.217270000000     0.197460000000    -0.22535    
O122     O      0.386090000000     0.176810000000     0.264140000000    -0.225633   
O123     O      0.476660000000     0.262930000000     0.259430000000    -0.224872   
O124     O      0.433230000000     0.165850000000     0.312800000000    -0.22659    
O125     O      0.475130000000     0.208910000000     0.320310000000    -0.234917   
O126     O      0.435880000000     0.244470000000     0.300220000000    -0.232933   
O127     O      0.444170000000     0.170830000000     0.205900000000    -0.235298   
O128     O      0.404400000000     0.205120000000     0.205100000000    -0.233272   
O129     O      0.829570000000     0.387250000000     0.468870000000    -0.224456   
O130     O      0.920700000000     0.472380000000     0.460140000000    -0.225819   
O131     O      0.825860000000     0.433310000000     0.529530000000    -0.225632   
O132     O      0.831990000000     0.440840000000     0.406400000000    -0.23503    
O133     O      0.872420000000     0.484800000000     0.416120000000    -0.227038   
O134     O      0.864460000000     0.479040000000     0.523980000000    -0.234675   
O135     O      0.870010000000     0.404930000000     0.427440000000    -0.232614   
O136     O      0.903470000000     0.444900000000     0.520130000000    -0.233011   
O137     O      0.142120000000     0.547050000000     0.518480000000    -0.225937   
O138     O      0.056550000000     0.502430000000     0.596740000000    -0.227895   
O139     O      0.149470000000     0.591070000000     0.597180000000    -0.227649   
O140     O      0.105290000000     0.493970000000     0.642060000000    -0.223604   
O141     O      0.140620000000     0.539600000000     0.660030000000    -0.232514   
O142     O      0.105250000000     0.574480000000     0.627800000000    -0.233149   
O143     O      0.135890000000     0.508120000000     0.556270000000    -0.234367   
O144     O      0.073470000000     0.527890000000     0.535240000000    -0.233454   
O145     O      0.094770000000     0.161950000000     0.356120000000    -0.225984   
O146     O      0.145310000000     0.207250000000     0.473060000000    -0.226814   
O147     O      0.048880000000     0.164530000000     0.419080000000    -0.224669   
O148     O      0.106900000000     0.239280000000     0.368350000000    -0.232754   
O149     O      0.135220000000     0.255440000000     0.427690000000    -0.225807   
O150     O      0.066430000000     0.205920000000     0.458300000000    -0.232621   
O151     O      0.140950000000     0.199290000000     0.364410000000    -0.235383   
O152     O      0.101650000000     0.166040000000     0.480100000000    -0.235136   
O153     O      0.193350000000     0.490250000000     0.339090000000    -0.231958   
O154     O      0.165560000000     0.394300000000     0.298610000000    -0.228476   
O155     O      0.242220000000     0.444860000000     0.268760000000    -0.232993   
O156     O      0.155930000000     0.444300000000     0.267060000000    -0.227559   
O157     O      0.198300000000     0.467800000000     0.230220000000    -0.232167   
O158     O      0.256810000000     0.488940000000     0.298290000000    -0.232112   
O159     O      0.200560000000     0.462320000000     0.385970000000    -0.228938   
O160     O      0.196650000000     0.409080000000     0.354740000000    -0.228175   
O161     O      0.428210000000     0.831460000000     0.030480000000    -0.225508   
O162     O      0.477490000000     0.877540000000     0.148250000000    -0.226055   
O163     O      0.381780000000     0.838200000000     0.090690000000    -0.224827   
O164     O      0.440720000000     0.908770000000     0.039270000000    -0.23351    
O165     O      0.469860000000     0.926060000000     0.097680000000    -0.225673   
O166     O      0.402140000000     0.876560000000     0.136390000000    -0.233649   
O167     O      0.474730000000     0.867890000000     0.040130000000    -0.235486   
O168     O      0.434580000000     0.834970000000     0.150700000000    -0.235053   
O169     O      0.585380000000     0.151230000000     0.968030000000    -0.224687   
O170     O      0.489270000000     0.110690000000     0.913930000000    -0.226581   
O171     O      0.540360000000     0.155730000000     0.031260000000    -0.225515   
O172     O      0.526040000000     0.078670000000     0.021360000000    -0.233349   
O173     O      0.497850000000     0.061550000000     0.962000000000    -0.225581   
O174     O      0.493410000000     0.120530000000     0.020990000000    -0.235338   
O175     O      0.566360000000     0.109630000000     0.929010000000    -0.232833   
O176     O      0.533410000000     0.151410000000     0.907270000000    -0.235141   
O177     O      0.819050000000     0.879900000000     0.866760000000    -0.226323   
O178     O      0.722430000000     0.837910000000     0.933140000000    -0.22573    
O179     O      0.811090000000     0.925500000000     0.923410000000    -0.224744   
O180     O      0.771930000000     0.827770000000     0.976910000000    -0.227818   
O181     O      0.811090000000     0.872460000000     0.987780000000    -0.235239   
O182     O      0.771440000000     0.906120000000     0.966670000000    -0.233096   
O183     O      0.778880000000     0.834990000000     0.866830000000    -0.234694   
O184     O      0.739010000000     0.866670000000     0.874250000000    -0.232821   
O185     O      0.491380000000     0.769650000000     0.870870000000    -0.225542   
O186     O      0.536440000000     0.819200000000     0.752840000000    -0.226244   
O187     O      0.496760000000     0.723630000000     0.809640000000    -0.224421   
O188     O      0.568880000000     0.783070000000     0.861280000000    -0.23343    
O189     O      0.585690000000     0.811450000000     0.802070000000    -0.226001   
O190     O      0.537130000000     0.743110000000     0.767810000000    -0.233261   
O191     O      0.526980000000     0.816400000000     0.860230000000    -0.235379   
O192     O      0.495370000000     0.775130000000     0.748250000000    -0.235396   
O193     O      0.137750000000     0.537120000000     0.091500000000    -0.224975   
O194     O      0.051720000000     0.539270000000     0.099010000000    -0.225582   
O195     O      0.146460000000     0.591550000000     0.031570000000    -0.225405   
O196     O      0.143570000000     0.595290000000     0.150790000000    -0.235073   
O197     O      0.101320000000     0.595780000000     0.149220000000    -0.226018   
O198     O      0.110250000000     0.601630000000     0.040380000000    -0.235381   
O199     O      0.100460000000     0.520840000000     0.138880000000    -0.233635   
O200     O      0.068480000000     0.526780000000     0.040850000000    -0.233632   
O201     O      0.825430000000     0.428310000000     0.968780000000    -0.224626   
O202     O      0.866880000000     0.375150000000     0.913080000000    -0.225983   
O203     O      0.822630000000     0.380030000000     0.033800000000    -0.225589   
O204     O      0.898600000000     0.442220000000     0.023110000000    -0.233528   
O205     O      0.915550000000     0.431780000000     0.963170000000    -0.225947   
O206     O      0.854810000000     0.365470000000     0.018160000000    -0.235659   
O207     O      0.867850000000     0.452730000000     0.931890000000    -0.232876   
O208     O      0.825860000000     0.377680000000     0.907680000000    -0.23482    
O209     O      0.161060000000     0.055490000000     0.696720000000    -0.225346   
O210     O      0.252940000000     0.109150000000     0.625250000000    -0.226423   
O211     O      0.160340000000     0.100680000000     0.629330000000    -0.224851   
O212     O      0.206110000000     0.051370000000     0.575570000000    -0.225194   
O213     O      0.164360000000     0.052430000000     0.568670000000    -0.234449   
O214     O      0.202760000000     0.126990000000     0.593050000000    -0.232853   
O215     O      0.191020000000     0.039040000000     0.676630000000    -0.235572   
O216     O      0.235020000000     0.117270000000     0.686130000000    -0.233734   
O217     O      0.478050000000     0.220400000000     0.759480000000    -0.224477   
O218     O      0.387250000000     0.215040000000     0.765600000000    -0.226077   
O219     O      0.480710000000     0.268320000000     0.695560000000    -0.225439   
O220     O      0.476530000000     0.270220000000     0.821620000000    -0.234952   
O221     O      0.436200000000     0.273790000000     0.814280000000    -0.226137   
O222     O      0.447900000000     0.282260000000     0.710100000000    -0.235385   
O223     O      0.436070000000     0.195830000000     0.797370000000    -0.232694   
O224     O      0.404840000000     0.206180000000     0.704960000000    -0.233839   
O225     O      0.209320000000     0.716230000000     0.870130000000    -0.225652   
O226     O      0.160100000000     0.711700000000     0.751580000000    -0.226086   
O227     O      0.255730000000     0.768240000000     0.808690000000    -0.224688   
O228     O      0.196620000000     0.780580000000     0.859980000000    -0.233243   
O229     O      0.168030000000     0.768390000000     0.800970000000    -0.22582    
O230     O      0.236250000000     0.788390000000     0.765880000000    -0.233386   
O231     O      0.162690000000     0.704790000000     0.859130000000    -0.235582   
O232     O      0.203610000000     0.713920000000     0.747770000000    -0.235217   
O233     O      0.100900000000     0.935200000000     0.864220000000    -0.226648   
O234     O      0.142430000000     0.879640000000     0.930140000000    -0.226498   
O235     O      0.055800000000     0.883000000000     0.919880000000    -0.224689   
O236     O      0.109350000000     0.931450000000     0.987240000000    -0.235261   
O237     O      0.154700000000     0.942750000000     0.967790000000    -0.229356   
O238     O      0.073150000000     0.859370000000     0.959450000000    -0.231879   
O239     O      0.143710000000     0.936230000000     0.857940000000    -0.233907   
O240     O      0.113430000000     0.866490000000     0.871470000000    -0.232289   
O241     O      0.543110000000     0.389330000000     0.529090000000    -0.225905   
O242     O      0.490970000000     0.383170000000     0.418380000000    -0.227989   
O243     O      0.588800000000     0.438190000000     0.470080000000    -0.224306   
O244     O      0.531890000000     0.456030000000     0.520200000000    -0.232996   
O245     O      0.505000000000     0.446010000000     0.459700000000    -0.226351   
O246     O      0.572990000000     0.463120000000     0.430320000000    -0.232205   
O247     O      0.497910000000     0.383220000000     0.525960000000    -0.234398   
O248     O      0.535610000000     0.389970000000     0.404520000000    -0.235124   
O249     O      0.431940000000     0.594150000000     0.519510000000    -0.226019   
O250     O      0.475790000000     0.551960000000     0.596430000000    -0.228014   
O251     O      0.387930000000     0.556370000000     0.597050000000    -0.227351   
O252     O      0.439550000000     0.599000000000     0.660370000000    -0.232619   
O253     O      0.484960000000     0.609030000000     0.642690000000    -0.223618   
O254     O      0.404000000000     0.528400000000     0.627280000000    -0.233238   
O255     O      0.471970000000     0.626170000000     0.556530000000    -0.234449   
O256     O      0.450610000000     0.543710000000     0.534760000000    -0.233364   
O257     O      0.920780000000     0.097590000000     0.129900000000    -0.227586   
O258     O      0.831530000000     0.099330000000     0.131720000000    -0.228131   
O259     O      0.877260000000     0.059210000000     0.208220000000    -0.225712   
O260     O      0.868540000000     0.053070000000     0.067310000000    -0.232272   
O261     O      0.823090000000     0.042350000000     0.086240000000    -0.223343   
O262     O      0.838320000000     0.026090000000     0.170340000000    -0.234357   
O263     O      0.903200000000     0.123780000000     0.098080000000    -0.233234   
O264     O      0.857230000000     0.108240000000     0.192990000000    -0.233523   
O265     O      0.760810000000     0.259290000000     0.200940000000    -0.225737   
O266     O      0.800370000000     0.203600000000     0.269290000000    -0.225873   
O267     O      0.715100000000     0.208250000000     0.259000000000    -0.224554   
O268     O      0.813140000000     0.265160000000     0.311640000000    -0.227805   
O269     O      0.768890000000     0.259920000000     0.323490000000    -0.234921   
O270     O      0.732500000000     0.186070000000     0.301720000000    -0.232522   
O271     O      0.805870000000     0.264970000000     0.202810000000    -0.2344     
O272     O      0.772700000000     0.192650000000     0.209450000000    -0.23283    
O273     O      0.775560000000     0.854880000000     0.457410000000    -0.232914   
O274     O      0.726030000000     0.881730000000     0.423740000000    -0.228424   
O275     O      0.822510000000     0.948640000000     0.385030000000    -0.232444   
O276     O      0.775300000000     0.940000000000     0.457000000000    -0.227354   
O277     O      0.799800000000     0.922370000000     0.493460000000    -0.231674   
O278     O      0.793080000000     0.913980000000     0.338120000000    -0.230015   
O279     O      0.819350000000     0.883220000000     0.425930000000    -0.231827   
O280     O      0.739930000000     0.861870000000     0.371490000000    -0.227975   
O281     O      0.534750000000     0.796770000000     0.268320000000    -0.232517   
O282     O      0.511320000000     0.729980000000     0.231020000000    -0.231941   
O283     O      0.487250000000     0.704070000000     0.341540000000    -0.231959   
O284     O      0.571060000000     0.790330000000     0.352180000000    -0.228001   
O285     O      0.584630000000     0.769670000000     0.300720000000    -0.228674   
O286     O      0.519760000000     0.737640000000     0.387050000000    -0.230523   
O287     O      0.491210000000     0.768300000000     0.300420000000    -0.231769   
O288     O      0.533810000000     0.710530000000     0.268260000000    -0.228021   


