data_structure

_audit_creation_method RASPA-1.0
_audit_creation_date 2023-5-22
_audit_author_name 'Poobodin Mano'

_cell_length_a    33.9559
_cell_length_b    33.9499
_cell_length_c    30.9924
_cell_angle_alpha 90.0035
_cell_angle_beta  89.9969
_cell_angle_gamma 102.957
_cell_volume      34818.3

_symmetry_cell_setting          triclinic
_symmetry_space_group_name_Hall 'P 1'
_symmetry_space_group_name_H-M  'P 1'
_symmetry_Int_Tables_number     1

_symmetry_equiv_pos_as_xyz 'x,y,z'

loop_
_atom_site_label
_atom_site_type_symbol
_atom_site_fract_x
_atom_site_fract_y
_atom_site_fract_z
_atom_site_charge
C1       C      0.227650000000     0.292810000000     0.451850000000     0.284607   
C2       C      0.174330000000     0.351930000000     0.326940000000     0.281762   
C3       C      0.101480000000     0.296240000000     0.448980000000     0.282575   
C4       C      0.226860000000     0.420180000000     0.450080000000     0.282275   
C5       C      0.330850000000     0.192720000000     0.515660000000     0.284506   
C6       C      0.385620000000     0.134780000000     0.640510000000     0.281767   
C7       C      0.332250000000     0.065480000000     0.517940000000     0.282376   
C8       C      0.457130000000     0.189950000000     0.517830000000     0.282535   
C9       C      0.334520000000     0.196020000000     0.951800000000     0.284427   
C10      C      0.387430000000     0.136420000000     0.826930000000     0.281861   
C11      C      0.460550000000     0.192360000000     0.948840000000     0.282415   
C12      C      0.335110000000     0.068510000000     0.950250000000     0.282301   
C13      C      0.176130000000     0.353570000000     0.140510000000     0.281726   
C14      C      0.231320000000     0.296110000000     0.015610000000     0.284408   
C15      C      0.104900000000     0.298650000000     0.017680000000     0.2825     
C16      C      0.229720000000     0.423210000000     0.018100000000     0.282381   
C17      C      0.521950000000     0.205110000000     0.996590000000    -0.00698913 
C18      C      0.497970000000     0.219180000000     0.965890000000    -0.0518249  
C19      C      0.009240000000     0.259850000000     0.952630000000    -0.00730418 
C20      C      0.043650000000     0.285840000000     0.969690000000    -0.00685266 
C21      C      0.067600000000     0.271780000000     0.000420000000    -0.0519302  
C22      C      0.056360000000     0.231100000000     0.013640000000    -0.00692422 
C23      C      0.266300000000     0.023570000000     0.960680000000    -0.00689478 
C24      C      0.308380000000     0.031080000000     0.967350000000    -0.051828   
C25      C      0.324180000000     0.503040000000     0.991200000000    -0.00708016 
C26      C      0.298490000000     0.468280000000     0.007920000000    -0.00687445 
C27      C      0.256420000000     0.460750000000     0.001200000000    -0.0519086  
C28      C      0.240620000000     0.488810000000     0.977390000000    -0.00707427 
C29      C      0.288280000000     0.242470000000     0.939280000000    -0.00602868 
C30      C      0.308440000000     0.221880000000     0.968170000000    -0.0535147  
C31      C      0.303060000000     0.225860000000     0.012720000000    -0.00637183 
C32      C      0.277890000000     0.249980000000     0.028130000000    -0.00611341 
C33      C      0.257670000000     0.270510000000     0.999240000000    -0.0534097  
C34      C      0.263100000000     0.266580000000     0.954690000000    -0.00640706 
C35      C      0.361740000000     0.153840000000     0.756210000000    -0.00657946 
C36      C      0.387360000000     0.134240000000     0.779280000000    -0.0522016  
C37      C      0.412370000000     0.113680000000     0.756330000000    -0.00690913 
C38      C      0.411920000000     0.113260000000     0.710980000000    -0.00694761 
C39      C      0.386440000000     0.133390000000     0.688180000000    -0.0521555  
C40      C      0.361280000000     0.153410000000     0.711420000000    -0.00656322 
C41      C      0.149790000000     0.375100000000     0.256350000000    -0.00692464 
C42      C      0.174290000000     0.353970000000     0.279280000000    -0.05214    
C43      C      0.199360000000     0.333740000000     0.256190000000    -0.00663258 
C44      C      0.199820000000     0.334170000000     0.211400000000    -0.0065248  
C45      C      0.175220000000     0.354820000000     0.188180000000    -0.0521922  
C46      C      0.150240000000     0.375520000000     0.211000000000    -0.00694824 
C47      C      0.052810000000     0.228750000000     0.452810000000    -0.00690592 
C48      C      0.064070000000     0.269420000000     0.466070000000    -0.0518911  
C49      C      0.040100000000     0.283490000000     0.496780000000    -0.00694171 
C50      C      0.005680000000     0.257500000000     0.513820000000    -0.00721703 
C51      C      0.494440000000     0.216820000000     0.500600000000    -0.0518426  
C52      C      0.518400000000     0.202750000000     0.469870000000    -0.0070712  
C53      C      0.237790000000     0.485670000000     0.491000000000    -0.00709934 
C54      C      0.253580000000     0.457630000000     0.467150000000    -0.0518438  
C55      C      0.295660000000     0.465150000000     0.460450000000    -0.00687504 
C56      C      0.321340000000     0.499910000000     0.477160000000    -0.00709773 
C57      C      0.305550000000     0.027960000000     0.501000000000    -0.0518969  
C58      C      0.263470000000     0.020420000000     0.507730000000    -0.00685675 
C59      C      0.284360000000     0.238930000000     0.528190000000    -0.00606257 
C60      C      0.304560000000     0.218380000000     0.499300000000    -0.0535023  
C61      C      0.299140000000     0.222310000000     0.454750000000    -0.00638062 
C62      C      0.273970000000     0.246430000000     0.439340000000    -0.00601866 
C63      C      0.253800000000     0.267010000000     0.468220000000    -0.0535525  
C64      C      0.259180000000     0.263040000000     0.512770000000    -0.00633718 
C65      C      0.227650000000     0.792810000000     0.451850000000     0.284593   
C66      C      0.174330000000     0.851930000000     0.326940000000     0.281879   
C67      C      0.101480000000     0.796240000000     0.448980000000     0.282581   
C68      C      0.226860000000     0.920180000000     0.450080000000     0.282392   
C69      C      0.330850000000     0.692720000000     0.515660000000     0.284513   
C70      C      0.385620000000     0.634780000000     0.640510000000     0.281774   
C71      C      0.332250000000     0.565480000000     0.517940000000     0.282285   
C72      C      0.457130000000     0.689950000000     0.517830000000     0.282535   
C73      C      0.334520000000     0.696020000000     0.951800000000     0.284428   
C74      C      0.387430000000     0.636420000000     0.826930000000     0.281868   
C75      C      0.460550000000     0.692360000000     0.948840000000     0.282395   
C76      C      0.335110000000     0.568510000000     0.950250000000     0.282455   
C77      C      0.176130000000     0.853570000000     0.140510000000     0.281719   
C78      C      0.231320000000     0.796110000000     0.015610000000     0.28441    
C79      C      0.104900000000     0.798650000000     0.017680000000     0.282497   
C80      C      0.229720000000     0.923210000000     0.018100000000     0.282387   
C81      C      0.521950000000     0.705110000000     0.996590000000    -0.00699555 
C82      C      0.497980000000     0.719170000000     0.965890000000    -0.0517875  
C83      C      0.009240000000     0.759840000000     0.952630000000    -0.00725686 
C84      C      0.043650000000     0.785840000000     0.969690000000    -0.00688045 
C85      C      0.067600000000     0.771780000000     0.000420000000    -0.0519181  
C86      C      0.056360000000     0.731100000000     0.013640000000    -0.00693426 
C87      C      0.266300000000     0.523570000000     0.960680000000    -0.00683708 
C88      C      0.308380000000     0.531080000000     0.967350000000    -0.0518967  
C89      C      0.324180000000     0.003040000000     0.991200000000    -0.00712584 
C90      C      0.298490000000     0.968280000000     0.007920000000    -0.00684347 
C91      C      0.256420000000     0.960750000000     0.001200000000    -0.051928   
C92      C      0.240620000000     0.988810000000     0.977390000000    -0.00703758 
C93      C      0.288280000000     0.742470000000     0.939280000000    -0.00602871 
C94      C      0.308440000000     0.721880000000     0.968170000000    -0.0535147  
C95      C      0.303060000000     0.725860000000     0.012720000000    -0.00637199 
C96      C      0.277890000000     0.749980000000     0.028130000000    -0.00611295 
C97      C      0.257670000000     0.770510000000     0.999240000000    -0.0534109  
C98      C      0.263100000000     0.766580000000     0.954690000000    -0.00640663 
C99      C      0.361750000000     0.653840000000     0.756210000000    -0.00653952 
C100     C      0.387360000000     0.634240000000     0.779280000000    -0.0522217  
C101     C      0.412370000000     0.613680000000     0.756330000000    -0.00690576 
C102     C      0.411920000000     0.613260000000     0.710980000000    -0.00694422 
C103     C      0.386440000000     0.633390000000     0.688180000000    -0.0521757  
C104     C      0.361290000000     0.653410000000     0.711420000000    -0.00652331 
C105     C      0.149790000000     0.875100000000     0.256350000000    -0.00689884 
C106     C      0.174290000000     0.853970000000     0.279280000000    -0.0522002  
C107     C      0.199360000000     0.833740000000     0.256190000000    -0.00657026 
C108     C      0.199820000000     0.834170000000     0.211400000000    -0.00656653 
C109     C      0.175220000000     0.854830000000     0.188180000000    -0.0521732  
C110     C      0.150240000000     0.875520000000     0.211000000000    -0.00695508 
C111     C      0.052800000000     0.728750000000     0.452810000000    -0.00687244 
C112     C      0.064070000000     0.769420000000     0.466070000000    -0.0519087  
C113     C      0.040100000000     0.783490000000     0.496780000000    -0.00693269 
C114     C      0.005680000000     0.757500000000     0.513820000000    -0.00722344 
C115     C      0.494440000000     0.716820000000     0.500600000000    -0.0518431  
C116     C      0.518400000000     0.702750000000     0.469870000000    -0.00706818 
C117     C      0.237790000000     0.985670000000     0.491000000000    -0.00709195 
C118     C      0.253580000000     0.957630000000     0.467150000000    -0.0518744  
C119     C      0.295660000000     0.965150000000     0.460450000000    -0.00686805 
C120     C      0.321340000000     0.999910000000     0.477160000000    -0.00706807 
C121     C      0.305550000000     0.527960000000     0.501000000000    -0.0518509  
C122     C      0.263470000000     0.520420000000     0.507730000000    -0.00686706 
C123     C      0.284360000000     0.738930000000     0.528190000000    -0.00604562 
C124     C      0.304560000000     0.718380000000     0.499300000000    -0.053522   
C125     C      0.299140000000     0.722310000000     0.454750000000    -0.00633777 
C126     C      0.273970000000     0.746420000000     0.439330000000    -0.00609028 
C127     C      0.253800000000     0.767010000000     0.468220000000    -0.0535158  
C128     C      0.259190000000     0.763050000000     0.512770000000    -0.00635686 
C129     C      0.727650000000     0.292810000000     0.451850000000     0.28461    
C130     C      0.674330000000     0.351930000000     0.326940000000     0.28177    
C131     C      0.601480000000     0.296240000000     0.448990000000     0.282417   
C132     C      0.726860000000     0.420180000000     0.450080000000     0.282251   
C133     C      0.830850000000     0.192720000000     0.515670000000     0.284443   
C134     C      0.885620000000     0.134780000000     0.640510000000     0.281866   
C135     C      0.832250000000     0.065480000000     0.517940000000     0.282447   
C136     C      0.957130000000     0.189950000000     0.517830000000     0.282458   
C137     C      0.834530000000     0.196020000000     0.951800000000     0.284501   
C138     C      0.887430000000     0.136420000000     0.826930000000     0.281873   
C139     C      0.960550000000     0.192360000000     0.948830000000     0.282354   
C140     C      0.835110000000     0.068510000000     0.950250000000     0.282458   
C141     C      0.676130000000     0.353570000000     0.140510000000     0.281721   
C142     C      0.731320000000     0.296110000000     0.015610000000     0.284525   
C143     C      0.604900000000     0.298650000000     0.017680000000     0.282469   
C144     C      0.729720000000     0.423210000000     0.018100000000     0.28234    
C145     C      0.021950000000     0.205110000000     0.996590000000    -0.00715927 
C146     C      0.997980000000     0.219170000000     0.965890000000    -0.0515172  
C147     C      0.509240000000     0.259850000000     0.952630000000    -0.00695438 
C148     C      0.543650000000     0.285850000000     0.969690000000    -0.00704657 
C149     C      0.567600000000     0.271780000000     0.000420000000    -0.0518317  
C150     C      0.556360000000     0.231100000000     0.013630000000    -0.00696938 
C151     C      0.766310000000     0.023570000000     0.960680000000    -0.00681459 
C152     C      0.808380000000     0.031080000000     0.967350000000    -0.051903   
C153     C      0.824180000000     0.503040000000     0.991200000000    -0.00701564 
C154     C      0.798500000000     0.468280000000     0.007930000000    -0.00696883 
C155     C      0.756420000000     0.460750000000     0.001200000000    -0.0518385  
C156     C      0.740620000000     0.488810000000     0.977390000000    -0.00712856 
C157     C      0.788280000000     0.242470000000     0.939280000000    -0.0060475  
C158     C      0.808440000000     0.221880000000     0.968170000000    -0.0534756  
C159     C      0.803060000000     0.225860000000     0.012720000000    -0.00639323 
C160     C      0.777890000000     0.249980000000     0.028130000000    -0.00608496 
C161     C      0.757670000000     0.270510000000     0.999240000000    -0.0534474  
C162     C      0.763100000000     0.266580000000     0.954690000000    -0.0063792  
C163     C      0.861740000000     0.153830000000     0.756210000000    -0.0065011  
C164     C      0.887360000000     0.134240000000     0.779280000000    -0.0522297  
C165     C      0.912370000000     0.113680000000     0.756330000000    -0.00689515 
C166     C      0.911920000000     0.113260000000     0.710980000000    -0.00694123 
C167     C      0.886440000000     0.133390000000     0.688180000000    -0.0521735  
C168     C      0.861280000000     0.153410000000     0.711420000000    -0.00658778 
C169     C      0.649790000000     0.375100000000     0.256350000000    -0.00691029 
C170     C      0.674290000000     0.353970000000     0.279280000000    -0.0521565  
C171     C      0.699360000000     0.333740000000     0.256190000000    -0.00658541 
C172     C      0.699820000000     0.334160000000     0.211400000000    -0.00655659 
C173     C      0.675220000000     0.354820000000     0.188180000000    -0.0521703  
C174     C      0.650240000000     0.375520000000     0.211000000000    -0.00695749 
C175     C      0.552810000000     0.228750000000     0.452820000000    -0.0069485  
C176     C      0.564070000000     0.269420000000     0.466070000000    -0.0518071  
C177     C      0.540090000000     0.283490000000     0.496770000000    -0.00707434 
C178     C      0.505680000000     0.257500000000     0.513820000000    -0.00690735 
C179     C      0.994440000000     0.216820000000     0.500600000000    -0.0515686  
C180     C      0.018400000000     0.202750000000     0.469870000000    -0.00724244 
C181     C      0.737790000000     0.485670000000     0.491000000000    -0.00713437 
C182     C      0.753590000000     0.457630000000     0.467150000000    -0.0518023  
C183     C      0.795660000000     0.465150000000     0.460450000000    -0.0068824  
C184     C      0.821340000000     0.499910000000     0.477160000000    -0.00708031 
C185     C      0.805550000000     0.027960000000     0.501000000000    -0.0519251  
C186     C      0.763470000000     0.020420000000     0.507730000000    -0.00682822 
C187     C      0.784360000000     0.238930000000     0.528190000000    -0.00608589 
C188     C      0.804560000000     0.218380000000     0.499300000000    -0.0534547  
C189     C      0.799140000000     0.222310000000     0.454750000000    -0.00639754 
C190     C      0.773970000000     0.246430000000     0.439340000000    -0.0060065  
C191     C      0.753800000000     0.267010000000     0.468220000000    -0.0535592  
C192     C      0.759190000000     0.263050000000     0.512770000000    -0.00632165 
C193     C      0.727650000000     0.792810000000     0.451850000000     0.284609   
C194     C      0.674330000000     0.851920000000     0.326940000000     0.281773   
C195     C      0.601480000000     0.796240000000     0.448980000000     0.282451   
C196     C      0.726860000000     0.920180000000     0.450080000000     0.282369   
C197     C      0.830850000000     0.692720000000     0.515670000000     0.284443   
C198     C      0.885620000000     0.634780000000     0.640510000000     0.281869   
C199     C      0.832250000000     0.565480000000     0.517940000000     0.282356   
C200     C      0.957130000000     0.689950000000     0.517830000000     0.282455   
C201     C      0.834530000000     0.696020000000     0.951800000000     0.284502   
C202     C      0.887430000000     0.636420000000     0.826930000000     0.281867   
C203     C      0.960550000000     0.692360000000     0.948830000000     0.282362   
C204     C      0.835110000000     0.568510000000     0.950250000000     0.282472   
C205     C      0.676130000000     0.853570000000     0.140510000000     0.281735   
C206     C      0.731320000000     0.796110000000     0.015610000000     0.284506   
C207     C      0.604900000000     0.798650000000     0.017680000000     0.282482   
C208     C      0.729720000000     0.923210000000     0.018100000000     0.282357   
C209     C      0.021950000000     0.705110000000     0.996590000000    -0.00714743 
C210     C      0.997980000000     0.719170000000     0.965890000000    -0.0515403  
C211     C      0.509240000000     0.759850000000     0.952630000000    -0.00701597 
C212     C      0.543650000000     0.785840000000     0.969690000000    -0.00697395 
C213     C      0.567600000000     0.771780000000     0.000420000000    -0.051867   
C214     C      0.556360000000     0.731100000000     0.013630000000    -0.00695459 
C215     C      0.766310000000     0.523570000000     0.960680000000    -0.00676377 
C216     C      0.808380000000     0.531080000000     0.967350000000    -0.0519409  
C217     C      0.824180000000     0.003040000000     0.991200000000    -0.00707843 
C218     C      0.798490000000     0.968280000000     0.007920000000    -0.00687199 
C219     C      0.756420000000     0.960750000000     0.001200000000    -0.0518885  
C220     C      0.740620000000     0.988810000000     0.977390000000    -0.00708428 
C221     C      0.788280000000     0.742470000000     0.939280000000    -0.00604689 
C222     C      0.808440000000     0.721880000000     0.968170000000    -0.0534761  
C223     C      0.803060000000     0.725860000000     0.012720000000    -0.00639205 
C224     C      0.777890000000     0.749980000000     0.028130000000    -0.00608818 
C225     C      0.757670000000     0.770510000000     0.999240000000    -0.0534461  
C226     C      0.763100000000     0.766580000000     0.954690000000    -0.00637983 
C227     C      0.861740000000     0.653830000000     0.756210000000    -0.00654011 
C228     C      0.887360000000     0.634240000000     0.779280000000    -0.052213   
C229     C      0.912370000000     0.613680000000     0.756330000000    -0.0069038  
C230     C      0.911920000000     0.613260000000     0.710980000000    -0.00693382 
C231     C      0.886440000000     0.633390000000     0.688180000000    -0.0521827  
C232     C      0.861280000000     0.653410000000     0.711420000000    -0.0065673  
C233     C      0.649790000000     0.875100000000     0.256350000000    -0.00693321 
C234     C      0.674290000000     0.853970000000     0.279280000000    -0.0521353  
C235     C      0.699360000000     0.833740000000     0.256190000000    -0.00662448 
C236     C      0.699820000000     0.834170000000     0.211400000000    -0.00649788 
C237     C      0.675220000000     0.854820000000     0.188180000000    -0.0522085  
C238     C      0.650240000000     0.875520000000     0.211000000000    -0.00691402 
C239     C      0.552810000000     0.728750000000     0.452820000000    -0.00695635 
C240     C      0.564070000000     0.769420000000     0.466070000000    -0.0517946  
C241     C      0.540090000000     0.783490000000     0.496770000000    -0.00707314 
C242     C      0.505680000000     0.757500000000     0.513820000000    -0.0069091  
C243     C      0.994440000000     0.716820000000     0.500600000000    -0.0515607  
C244     C      0.018400000000     0.702750000000     0.469870000000    -0.00725988 
C245     C      0.737790000000     0.985670000000     0.491000000000    -0.007127   
C246     C      0.753590000000     0.957630000000     0.467150000000    -0.0518333  
C247     C      0.795660000000     0.965150000000     0.460450000000    -0.00687502 
C248     C      0.821340000000     0.999910000000     0.477160000000    -0.00705139 
C249     C      0.805550000000     0.527960000000     0.501000000000    -0.0518795  
C250     C      0.763470000000     0.520420000000     0.507730000000    -0.00683847 
C251     C      0.784360000000     0.738930000000     0.528190000000    -0.00608616 
C252     C      0.804560000000     0.718380000000     0.499300000000    -0.0534515  
C253     C      0.799140000000     0.722310000000     0.454750000000    -0.00639817 
C254     C      0.773970000000     0.746430000000     0.439340000000    -0.00600615 
C255     C      0.753800000000     0.767010000000     0.468220000000    -0.0535578  
C256     C      0.759190000000     0.763050000000     0.512770000000    -0.00632289 
Cd1      Cd     0.178580000000     0.343870000000     0.419170000000     0.510225   
Cd2      Cd     0.380380000000     0.142090000000     0.548270000000     0.510243   
Cd3      Cd     0.383400000000     0.144750000000     0.919160000000     0.51024    
Cd4      Cd     0.181590000000     0.346540000000     0.048250000000     0.510239   
Cd5      Cd     0.178580000000     0.843870000000     0.419170000000     0.510234   
Cd6      Cd     0.380380000000     0.642090000000     0.548270000000     0.510229   
Cd7      Cd     0.383400000000     0.644750000000     0.919160000000     0.510237   
Cd8      Cd     0.181590000000     0.846530000000     0.048250000000     0.510245   
Cd9      Cd     0.678580000000     0.343870000000     0.419170000000     0.510228   
Cd10     Cd     0.880390000000     0.142090000000     0.548270000000     0.510254   
Cd11     Cd     0.883400000000     0.144750000000     0.919160000000     0.51024    
Cd12     Cd     0.681590000000     0.346540000000     0.048250000000     0.510223   
Cd13     Cd     0.678580000000     0.843870000000     0.419170000000     0.510229   
Cd14     Cd     0.880390000000     0.642090000000     0.548270000000     0.51024    
Cd15     Cd     0.883400000000     0.644750000000     0.919160000000     0.510241   
Cd16     Cd     0.681590000000     0.846530000000     0.048250000000     0.510239   
H1       H      0.514050000000     0.174060000000     0.007630000000     0.057354   
H2       H      0.991350000000     0.271750000000     0.929130000000     0.0578162  
H3       H      0.051540000000     0.316900000000     0.958670000000     0.0573269  
H4       H      0.074230000000     0.219200000000     0.037160000000     0.0576538  
H5       H      0.253080000000     0.044630000000     0.942530000000     0.057675   
H6       H      0.356360000000     0.007960000000     0.997040000000     0.057338   
H7       H      0.311720000000     0.447210000000     0.026050000000     0.0576669  
H8       H      0.208440000000     0.483870000000     0.971520000000     0.0573237  
H9       H      0.291860000000     0.239910000000     0.904730000000     0.0582529  
H10      H      0.318210000000     0.210300000000     0.035710000000     0.0569814  
H11      H      0.274290000000     0.252510000000     0.062680000000     0.0582628  
H12      H      0.247930000000     0.282120000000     0.931700000000     0.0569936  
H13      H      0.341950000000     0.169850000000     0.772740000000     0.0597462  
H14      H      0.432400000000     0.098280000000     0.773320000000     0.0560592  
H15      H      0.431620000000     0.097560000000     0.693870000000     0.056079   
H16      H      0.341160000000     0.169130000000     0.695010000000     0.059747   
H17      H      0.130180000000     0.390990000000     0.273350000000     0.0560533  
H18      H      0.218740000000     0.317260000000     0.272700000000     0.0597762  
H19      H      0.219530000000     0.317980000000     0.194980000000     0.0597501  
H20      H      0.130970000000     0.391710000000     0.193890000000     0.0560663  
H21      H      0.070690000000     0.216850000000     0.429310000000     0.057665   
H22      H      0.048000000000     0.314540000000     0.507820000000     0.0573499  
H23      H      0.487800000000     0.269400000000     0.537350000000     0.0576639  
H24      H      0.510510000000     0.171700000000     0.458850000000     0.057398   
H25      H      0.205610000000     0.480740000000     0.496870000000     0.0573258  
H26      H      0.308880000000     0.444090000000     0.442290000000     0.0576642  
H27      H      0.353520000000     0.504850000000     0.471280000000     0.057322   
H28      H      0.250250000000     0.041490000000     0.525880000000     0.057671   
H29      H      0.287950000000     0.236400000000     0.562740000000     0.0582559  
H30      H      0.314310000000     0.206760000000     0.431760000000     0.0569935  
H31      H      0.270390000000     0.248970000000     0.404790000000     0.0582477  
H32      H      0.244030000000     0.278610000000     0.535760000000     0.0569773  
H33      H      0.514050000000     0.674060000000     0.007630000000     0.0573556  
H34      H      0.991350000000     0.771750000000     0.929130000000     0.0578006  
H35      H      0.051540000000     0.816900000000     0.958670000000     0.0573346  
H36      H      0.074230000000     0.719200000000     0.037160000000     0.0576559  
H37      H      0.253080000000     0.544630000000     0.942520000000     0.0576586  
H38      H      0.356360000000     0.507960000000     0.997040000000     0.0573325  
H39      H      0.311720000000     0.947210000000     0.026050000000     0.0576613  
H40      H      0.208440000000     0.983870000000     0.971520000000     0.0573178  
H41      H      0.291860000000     0.739910000000     0.904730000000     0.0582529  
H42      H      0.318210000000     0.710300000000     0.035710000000     0.0569813  
H43      H      0.274290000000     0.752510000000     0.062680000000     0.0582627  
H44      H      0.247930000000     0.782120000000     0.931700000000     0.0569938  
H45      H      0.341950000000     0.669860000000     0.772740000000     0.0597262  
H46      H      0.432400000000     0.598280000000     0.773320000000     0.0560586  
H47      H      0.431620000000     0.597560000000     0.693870000000     0.0560782  
H48      H      0.341160000000     0.669140000000     0.695010000000     0.0597269  
H49      H      0.130180000000     0.890990000000     0.273350000000     0.0560475  
H50      H      0.218740000000     0.817250000000     0.272700000000     0.0597563  
H51      H      0.219530000000     0.817980000000     0.194980000000     0.0597599  
H52      H      0.130970000000     0.891710000000     0.193890000000     0.0560699  
H53      H      0.070690000000     0.716850000000     0.429310000000     0.0576529  
H54      H      0.048000000000     0.814540000000     0.507820000000     0.0573487  
H55      H      0.487800000000     0.769400000000     0.537350000000     0.0576639  
H56      H      0.510510000000     0.671700000000     0.458850000000     0.0573973  
H57      H      0.205610000000     0.980740000000     0.496860000000     0.0573285  
H58      H      0.308880000000     0.944090000000     0.442290000000     0.0576681  
H59      H      0.353520000000     0.004850000000     0.471280000000     0.0573108  
H60      H      0.250250000000     0.541490000000     0.525880000000     0.0576775  
H61      H      0.287950000000     0.736400000000     0.562740000000     0.0582519  
H62      H      0.314310000000     0.706760000000     0.431760000000     0.0569834  
H63      H      0.270390000000     0.748970000000     0.404790000000     0.0582717  
H64      H      0.244030000000     0.778610000000     0.535760000000     0.0569825  
H65      H      0.014050000000     0.174060000000     0.007630000000     0.057371   
H66      H      0.491350000000     0.271750000000     0.929130000000     0.0576827  
H67      H      0.551530000000     0.316900000000     0.958680000000     0.0573985  
H68      H      0.574240000000     0.219200000000     0.037160000000     0.0576675  
H69      H      0.753080000000     0.044630000000     0.942530000000     0.0576539  
H70      H      0.856360000000     0.007960000000     0.997040000000     0.05734    
H71      H      0.811720000000     0.447210000000     0.026050000000     0.057705   
H72      H      0.708440000000     0.483870000000     0.971520000000     0.0573447  
H73      H      0.791860000000     0.239910000000     0.904730000000     0.0582634  
H74      H      0.818210000000     0.210300000000     0.035710000000     0.0569939  
H75      H      0.774290000000     0.252510000000     0.062680000000     0.0582638  
H76      H      0.747930000000     0.282120000000     0.931700000000     0.056995   
H77      H      0.841940000000     0.169850000000     0.772740000000     0.0597213  
H78      H      0.932400000000     0.098280000000     0.773320000000     0.0560665  
H79      H      0.931620000000     0.097560000000     0.693870000000     0.0560868  
H80      H      0.841160000000     0.169130000000     0.695010000000     0.0597557  
H81      H      0.630180000000     0.390990000000     0.273350000000     0.0560568  
H82      H      0.718740000000     0.317250000000     0.272700000000     0.0597639  
H83      H      0.719530000000     0.317970000000     0.194980000000     0.0597622  
H84      H      0.630970000000     0.391710000000     0.193890000000     0.0560753  
H85      H      0.570700000000     0.216850000000     0.429310000000     0.0576752  
H86      H      0.548000000000     0.314540000000     0.507810000000     0.0574019  
H87      H      0.987810000000     0.269400000000     0.537350000000     0.0577889  
H88      H      0.010510000000     0.171700000000     0.458850000000     0.0574141  
H89      H      0.705610000000     0.480740000000     0.496870000000     0.0573388  
H90      H      0.808880000000     0.444090000000     0.442290000000     0.0576714  
H91      H      0.853520000000     0.504850000000     0.471280000000     0.0573248  
H92      H      0.750250000000     0.041490000000     0.525880000000     0.0576689  
H93      H      0.787960000000     0.236400000000     0.562740000000     0.0582688  
H94      H      0.814310000000     0.206760000000     0.431760000000     0.0570017  
H95      H      0.770390000000     0.248970000000     0.404790000000     0.0582487  
H96      H      0.744030000000     0.278610000000     0.535760000000     0.0569783  
H97      H      0.014050000000     0.674060000000     0.007630000000     0.057368   
H98      H      0.491350000000     0.771750000000     0.929130000000     0.0576972  
H99      H      0.551530000000     0.816900000000     0.958680000000     0.0573755  
H100     H      0.574240000000     0.719200000000     0.037160000000     0.0576639  
H101     H      0.753080000000     0.544630000000     0.942520000000     0.0576406  
H102     H      0.856360000000     0.507960000000     0.997040000000     0.0573256  
H103     H      0.811720000000     0.947210000000     0.026050000000     0.057675   
H104     H      0.708440000000     0.983870000000     0.971520000000     0.0573367  
H105     H      0.791860000000     0.739910000000     0.904730000000     0.0582638  
H106     H      0.818210000000     0.710300000000     0.035710000000     0.0569937  
H107     H      0.774290000000     0.752510000000     0.062680000000     0.0582604  
H108     H      0.747930000000     0.782120000000     0.931700000000     0.0569958  
H109     H      0.841950000000     0.669850000000     0.772740000000     0.0597366  
H110     H      0.932400000000     0.598280000000     0.773320000000     0.0560686  
H111     H      0.931620000000     0.597560000000     0.693870000000     0.0560849  
H112     H      0.841160000000     0.669130000000     0.695010000000     0.0597516  
H113     H      0.630180000000     0.890990000000     0.273350000000     0.0560639  
H114     H      0.718740000000     0.817250000000     0.272700000000     0.0597732  
H115     H      0.719530000000     0.817970000000     0.194980000000     0.059743   
H116     H      0.630970000000     0.891720000000     0.193890000000     0.0560615  
H117     H      0.570700000000     0.716850000000     0.429310000000     0.0576769  
H118     H      0.547990000000     0.814540000000     0.507810000000     0.0574002  
H119     H      0.987810000000     0.769400000000     0.537350000000     0.0577911  
H120     H      0.010510000000     0.671700000000     0.458850000000     0.0574182  
H121     H      0.705610000000     0.980740000000     0.496860000000     0.0573413  
H122     H      0.808880000000     0.944090000000     0.442290000000     0.0576752  
H123     H      0.853520000000     0.004850000000     0.471280000000     0.0573141  
H124     H      0.750250000000     0.541490000000     0.525880000000     0.0576755  
H125     H      0.787950000000     0.736400000000     0.562740000000     0.0582666  
H126     H      0.814310000000     0.706760000000     0.431760000000     0.0570023  
H127     H      0.770390000000     0.748970000000     0.404790000000     0.0582492  
H128     H      0.744030000000     0.778610000000     0.535760000000     0.0569787  
O1       O      0.195490000000     0.331130000000     0.346040000000    -0.227122   
O2       O      0.188820000000     0.411460000000     0.455530000000    -0.227686   
O3       O      0.222810000000     0.297150000000     0.411800000000    -0.222131   
O4       O      0.123970000000     0.283080000000     0.422820000000    -0.234539   
O5       O      0.113670000000     0.332780000000     0.460690000000    -0.228004   
O6       O      0.209320000000     0.312070000000     0.476980000000    -0.23329    
O7       O      0.153790000000     0.370120000000     0.350810000000    -0.232375   
O8       O      0.241370000000     0.394410000000     0.429890000000    -0.234216   
O9       O      0.363770000000     0.154910000000     0.621490000000    -0.227169   
O10      O      0.445120000000     0.153300000000     0.506440000000    -0.227921   
O11      O      0.335820000000     0.188490000000     0.555710000000    -0.222086   
O12      O      0.317750000000     0.091160000000     0.538280000000    -0.234328   
O13      O      0.370240000000     0.074390000000     0.512130000000    -0.227758   
O14      O      0.349260000000     0.173550000000     0.490510000000    -0.233297   
O15      O      0.406310000000     0.116820000000     0.616550000000    -0.232318   
O16      O      0.434590000000     0.203140000000     0.543920000000    -0.234458   
O17      O      0.366070000000     0.157010000000     0.846030000000    -0.227192   
O18      O      0.373170000000     0.077180000000     0.955570000000    -0.227665   
O19      O      0.339410000000     0.191700000000     0.911750000000    -0.22207    
O20      O      0.438070000000     0.205500000000     0.922640000000    -0.234418   
O21      O      0.448320000000     0.155840000000     0.960610000000    -0.227943   
O22      O      0.352730000000     0.176640000000     0.976940000000    -0.233175   
O23      O      0.408280000000     0.118570000000     0.850800000000    -0.232356   
O24      O      0.320590000000     0.094290000000     0.930110000000    -0.234242   
O25      O      0.226390000000     0.300380000000     0.055660000000    -0.222052   
O26      O      0.191740000000     0.414260000000     0.012210000000    -0.227786   
O27      O      0.197790000000     0.333250000000     0.121460000000    -0.227105   
O28      O      0.127450000000     0.285450000000     0.043740000000    -0.23449    
O29      O      0.116870000000     0.335330000000     0.006360000000    -0.227899   
O30      O      0.155760000000     0.371880000000     0.116560000000    -0.232318   
O31      O      0.212770000000     0.315150000000     0.990470000000    -0.23323    
O32      O      0.244210000000     0.397540000000     0.038460000000    -0.234342   
O33      O      0.195490000000     0.831140000000     0.346040000000    -0.227197   
O34      O      0.188820000000     0.911460000000     0.455530000000    -0.227715   
O35      O      0.222810000000     0.797150000000     0.411800000000    -0.222128   
O36      O      0.123970000000     0.783080000000     0.422820000000    -0.234542   
O37      O      0.113670000000     0.832780000000     0.460690000000    -0.228004   
O38      O      0.209320000000     0.812070000000     0.476980000000    -0.233288   
O39      O      0.153790000000     0.870120000000     0.350810000000    -0.232399   
O40      O      0.241370000000     0.894420000000     0.429890000000    -0.234287   
O41      O      0.363770000000     0.654910000000     0.621490000000    -0.227172   
O42      O      0.445120000000     0.653300000000     0.506440000000    -0.227922   
O43      O      0.335820000000     0.688490000000     0.555710000000    -0.222088   
O44      O      0.317740000000     0.591160000000     0.538280000000    -0.234266   
O45      O      0.370240000000     0.574390000000     0.512130000000    -0.227741   
O46      O      0.349260000000     0.673550000000     0.490510000000    -0.2333     
O47      O      0.406310000000     0.616820000000     0.616550000000    -0.232321   
O48      O      0.434590000000     0.703140000000     0.543920000000    -0.234457   
O49      O      0.366070000000     0.657010000000     0.846030000000    -0.227194   
O50      O      0.373160000000     0.577170000000     0.955570000000    -0.227758   
O51      O      0.339410000000     0.691700000000     0.911750000000    -0.22207    
O52      O      0.438070000000     0.705500000000     0.922640000000    -0.234414   
O53      O      0.448320000000     0.655840000000     0.960610000000    -0.227939   
O54      O      0.352730000000     0.676640000000     0.976940000000    -0.233176   
O55      O      0.408280000000     0.618570000000     0.850800000000    -0.232357   
O56      O      0.320590000000     0.594290000000     0.930110000000    -0.234285   
O57      O      0.226390000000     0.800380000000     0.055660000000    -0.222068   
O58      O      0.191740000000     0.914260000000     0.012210000000    -0.22777    
O59      O      0.197790000000     0.833250000000     0.121460000000    -0.227109   
O60      O      0.127450000000     0.785450000000     0.043740000000    -0.234504   
O61      O      0.116870000000     0.835330000000     0.006360000000    -0.227895   
O62      O      0.155760000000     0.871880000000     0.116560000000    -0.232306   
O63      O      0.212770000000     0.815150000000     0.990470000000    -0.23324    
O64      O      0.244210000000     0.897540000000     0.038460000000    -0.234333   
O65      O      0.695490000000     0.331130000000     0.346040000000    -0.227121   
O66      O      0.688820000000     0.411460000000     0.455530000000    -0.227676   
O67      O      0.722810000000     0.297150000000     0.411800000000    -0.222129   
O68      O      0.623980000000     0.283080000000     0.422820000000    -0.234419   
O69      O      0.613670000000     0.332780000000     0.460690000000    -0.227968   
O70      O      0.709320000000     0.312070000000     0.476980000000    -0.233288   
O71      O      0.653790000000     0.370120000000     0.350810000000    -0.232371   
O72      O      0.741370000000     0.394410000000     0.429890000000    -0.234207   
O73      O      0.863770000000     0.154900000000     0.621490000000    -0.22723    
O74      O      0.945120000000     0.153300000000     0.506440000000    -0.227893   
O75      O      0.835820000000     0.188490000000     0.555710000000    -0.222109   
O76      O      0.817750000000     0.091160000000     0.538270000000    -0.234355   
O77      O      0.870240000000     0.074390000000     0.512130000000    -0.227771   
O78      O      0.849270000000     0.173550000000     0.490510000000    -0.233197   
O79      O      0.906310000000     0.116820000000     0.616550000000    -0.232341   
O80      O      0.934590000000     0.203140000000     0.543920000000    -0.234434   
O81      O      0.866070000000     0.157010000000     0.846030000000    -0.22719    
O82      O      0.873160000000     0.077170000000     0.955570000000    -0.22775    
O83      O      0.839410000000     0.191700000000     0.911750000000    -0.2221     
O84      O      0.938070000000     0.205500000000     0.922640000000    -0.234433   
O85      O      0.948320000000     0.155840000000     0.960610000000    -0.227894   
O86      O      0.852730000000     0.176640000000     0.976940000000    -0.23323    
O87      O      0.908280000000     0.118570000000     0.850800000000    -0.23235    
O88      O      0.820590000000     0.094290000000     0.930110000000    -0.234281   
O89      O      0.726400000000     0.300380000000     0.055660000000    -0.222086   
O90      O      0.691740000000     0.414260000000     0.012200000000    -0.22776    
O91      O      0.697790000000     0.333250000000     0.121460000000    -0.227101   
O92      O      0.627450000000     0.285450000000     0.043740000000    -0.234485   
O93      O      0.616870000000     0.335330000000     0.006360000000    -0.227882   
O94      O      0.655760000000     0.371880000000     0.116560000000    -0.232314   
O95      O      0.712780000000     0.315150000000     0.990470000000    -0.233292   
O96      O      0.744210000000     0.397540000000     0.038460000000    -0.234326   
O97      O      0.695490000000     0.831130000000     0.346040000000    -0.227164   
O98      O      0.688820000000     0.911460000000     0.455530000000    -0.227707   
O99      O      0.722810000000     0.797150000000     0.411800000000    -0.222127   
O100     O      0.623980000000     0.783080000000     0.422820000000    -0.234468   
O101     O      0.613670000000     0.832780000000     0.460690000000    -0.227961   
O102     O      0.709320000000     0.812070000000     0.476980000000    -0.233287   
O103     O      0.653790000000     0.870120000000     0.350810000000    -0.232335   
O104     O      0.741370000000     0.894420000000     0.429890000000    -0.234279   
O105     O      0.863770000000     0.654900000000     0.621490000000    -0.227231   
O106     O      0.945120000000     0.653300000000     0.506440000000    -0.227893   
O107     O      0.835820000000     0.688490000000     0.555710000000    -0.222106   
O108     O      0.817740000000     0.591160000000     0.538270000000    -0.234293   
O109     O      0.870240000000     0.574390000000     0.512130000000    -0.227754   
O110     O      0.849270000000     0.673550000000     0.490510000000    -0.233198   
O111     O      0.906310000000     0.616820000000     0.616550000000    -0.232343   
O112     O      0.934590000000     0.703140000000     0.543920000000    -0.234432   
O113     O      0.866070000000     0.657010000000     0.846030000000    -0.227188   
O114     O      0.873160000000     0.577170000000     0.955570000000    -0.227753   
O115     O      0.839410000000     0.691700000000     0.911750000000    -0.2221     
O116     O      0.938070000000     0.705500000000     0.922640000000    -0.234436   
O117     O      0.948320000000     0.655840000000     0.960610000000    -0.227895   
O118     O      0.852730000000     0.676640000000     0.976940000000    -0.23323    
O119     O      0.908280000000     0.618570000000     0.850800000000    -0.232349   
O120     O      0.820590000000     0.594290000000     0.930110000000    -0.234285   
O121     O      0.726390000000     0.800380000000     0.055660000000    -0.222092   
O122     O      0.691740000000     0.914260000000     0.012200000000    -0.227746   
O123     O      0.697790000000     0.833250000000     0.121460000000    -0.227109   
O124     O      0.627450000000     0.785450000000     0.043740000000    -0.234499   
O125     O      0.616870000000     0.835330000000     0.006360000000    -0.227883   
O126     O      0.655760000000     0.871880000000     0.116560000000    -0.232308   
O127     O      0.712780000000     0.815150000000     0.990470000000    -0.233292   
O128     O      0.744210000000     0.897540000000     0.038460000000    -0.234322   


