data_structure

_audit_creation_method RASPA-1.0
_audit_creation_date 2023-5-22
_audit_author_name 'Poobodin Mano'

_cell_length_a    30.0932
_cell_length_b    60.0885
_cell_length_c    45.3909
_cell_angle_alpha 90.0021
_cell_angle_beta  90.0025
_cell_angle_gamma 120
_cell_volume      71081.9

_symmetry_cell_setting          triclinic
_symmetry_space_group_name_Hall 'P 1'
_symmetry_space_group_name_H-M  'P 1'
_symmetry_Int_Tables_number     1

_symmetry_equiv_pos_as_xyz 'x,y,z'

loop_
_atom_site_label
_atom_site_type_symbol
_atom_site_fract_x
_atom_site_fract_y
_atom_site_fract_z
_atom_site_charge
C1       C      0.632260000000     0.238660000000     0.480800000000     0.284245   
C2       C      0.809740000000     0.238000000000     0.490430000000     0.284147   
C3       C      0.675340000000     0.201030000000     0.543620000000     0.284396   
C4       C      0.692220000000     0.202460000000     0.425420000000     0.28424    
C5       C      0.544430000000     0.109520000000     0.146110000000     0.284418   
C6       C      0.544000000000     0.198490000000     0.156070000000     0.284447   
C7       C      0.618500000000     0.168630000000     0.210030000000     0.284571   
C8       C      0.617160000000     0.176220000000     0.091890000000     0.284514   
C9       C      0.364710000000     0.293390000000     0.482770000000     0.28447    
C10      C      0.186300000000     0.292540000000     0.495120000000     0.28431    
C11      C      0.324240000000     0.331160000000     0.547100000000     0.28493    
C12      C      0.302370000000     0.329300000000     0.429670000000     0.284833   
C13      C      0.433080000000     0.331810000000     0.159230000000     0.284699   
C14      C      0.433650000000     0.420700000000     0.146460000000     0.284504   
C15      C      0.353920000000     0.350510000000     0.096290000000     0.285262   
C16      C      0.362730000000     0.362970000000     0.213510000000     0.284949   
C17      C      0.179900000000     0.328520000000     0.813190000000     0.284394   
C18      C      0.356450000000     0.417100000000     0.828420000000     0.284465   
C19      C      0.294290000000     0.348180000000     0.879920000000     0.285517   
C20      C      0.319470000000     0.359240000000     0.763380000000     0.285468   
C21      C      0.624410000000     0.105680000000     0.823800000000     0.284271   
C22      C      0.802960000000     0.194750000000     0.813060000000     0.28423    
C23      C      0.669720000000     0.164170000000     0.758780000000     0.284568   
C24      C      0.685500000000     0.173210000000     0.876840000000     0.284518   
C25      C      0.483970000000     0.978890000000     0.824830000000    -0.0557762  
C26      C      0.470330000000     0.997610000000     0.831060000000     0.0215289  
C27      C      0.418420000000     0.989450000000     0.837130000000    -0.0553297  
C28      C      0.381130000000     0.463320000000     0.836400000000     0.0116412  
C29      C      0.395080000000     0.444780000000     0.830040000000    -0.070888   
C30      C      0.446950000000     0.452860000000     0.824550000000     0.0117106  
C31      C      0.509900000000     0.025470000000     0.830160000000     0.0215029  
C32      C      0.560910000000     0.034130000000     0.839040000000    -0.0554753  
C33      C      0.598420000000     0.060130000000     0.836790000000     0.0118098  
C34      C      0.585590000000     0.078090000000     0.826090000000    -0.070995   
C35      C      0.534630000000     0.069570000000     0.817640000000     0.0119385  
C36      C      0.497390000000     0.043610000000     0.819440000000    -0.055617   
C37      C      0.926920000000     0.258300000000     0.818160000000    -0.0556675  
C38      C      0.963520000000     0.251870000000     0.808610000000     0.0215394  
C39      C      0.946510000000     0.226240000000     0.800210000000    -0.055463   
C40      C      0.894450000000     0.207530000000     0.801790000000     0.0117252  
C41      C      0.858190000000     0.214120000000     0.811340000000    -0.0708502  
C42      C      0.874960000000     0.239730000000     0.819300000000     0.0118315  
C43      C      0.019220000000     0.271620000000     0.808470000000     0.0215252  
C44      C      0.035970000000     0.297580000000     0.801880000000    -0.055426   
C45      C      0.088130000000     0.316210000000     0.803320000000     0.0116927  
C46      C      0.124680000000     0.309220000000     0.810920000000    -0.0709014  
C47      C      0.108120000000     0.283270000000     0.816950000000     0.0116832  
C48      C      0.056130000000     0.264770000000     0.815950000000    -0.0557605  
C49      C      0.287810000000     0.345220000000     0.023810000000    -0.0555141  
C50      C      0.313910000000     0.337010000000     0.004790000000     0.0221962  
C51      C      0.349080000000     0.330690000000     0.017110000000    -0.0561907  
C52      C      0.360430000000     0.334170000000     0.047140000000     0.0137941  
C53      C      0.335920000000     0.343370000000     0.065730000000    -0.072307   
C54      C      0.298320000000     0.348080000000     0.054050000000     0.0130474  
C55      C      0.307190000000     0.336800000000     0.972180000000     0.0219109  
C56      C      0.259980000000     0.331560000000     0.959940000000    -0.0560216  
C57      C      0.255520000000     0.334430000000     0.929750000000     0.0134089  
C58      C      0.297730000000     0.341970000000     0.910950000000    -0.0722131  
C59      C      0.344050000000     0.345730000000     0.922680000000     0.0128948  
C60      C      0.348930000000     0.343450000000     0.953020000000    -0.0554132  
C61      C      0.330470000000     0.331700000000     0.690770000000    -0.0554416  
C62      C      0.346190000000     0.352900000000     0.671720000000     0.022036   
C63      C      0.357870000000     0.376720000000     0.684000000000    -0.0560694  
C64      C      0.350880000000     0.378870000000     0.714040000000     0.0135758  
C65      C      0.333340000000     0.357460000000     0.732680000000    -0.0722329  
C66      C      0.324680000000     0.334050000000     0.721000000000     0.012999   
C67      C      0.347000000000     0.349750000000     0.639130000000     0.0220239  
C68      C      0.358360000000     0.331600000000     0.627070000000    -0.0560264  
C69      C      0.352740000000     0.326320000000     0.596930000000     0.0134531  
C70      C      0.336940000000     0.339520000000     0.577980000000    -0.0720175  
C71      C      0.328710000000     0.358790000000     0.589490000000     0.0128637  
C72      C      0.333110000000     0.363670000000     0.619810000000    -0.0554502  
C73      C      0.341140000000     0.368650000000     0.359250000000    -0.0558539  
C74      C      0.315880000000     0.349360000000     0.337820000000     0.0216074  
C75      C      0.283960000000     0.323920000000     0.347130000000    -0.0559027  
C76      C      0.278820000000     0.317720000000     0.376990000000     0.0119205  
C77      C      0.305480000000     0.336780000000     0.398360000000    -0.0712209  
C78      C      0.335950000000     0.362410000000     0.389270000000     0.0117136  
C79      C      0.326110000000     0.355120000000     0.305880000000     0.0215664  
C80      C      0.286870000000     0.342620000000     0.284820000000    -0.055832   
C81      C      0.298180000000     0.345650000000     0.254660000000     0.011794   
C82      C      0.348940000000     0.361220000000     0.245030000000    -0.0713909  
C83      C      0.387690000000     0.374530000000     0.266060000000     0.0119798  
C84      C      0.376440000000     0.371520000000     0.296080000000    -0.0558179  
C85      C      0.515610000000     0.992650000000     0.134260000000    -0.0553608  
C86      C      0.481090000000     0.001190000000     0.141710000000     0.0214805  
C87      C      0.430950000000     0.982860000000     0.150160000000    -0.0556915  
C88      C      0.415770000000     0.456820000000     0.151230000000     0.0118961  
C89      C      0.450450000000     0.448370000000     0.144280000000    -0.0711371  
C90      C      0.500540000000     0.466520000000     0.135730000000     0.0117201  
C91      C      0.497520000000     0.029090000000     0.141720000000     0.0216171  
C92      C      0.547420000000     0.047430000000     0.150560000000    -0.055712   
C93      C      0.562440000000     0.073470000000     0.151670000000     0.011922   
C94      C      0.527810000000     0.081860000000     0.144350000000    -0.0710089  
C95      C      0.477960000000     0.063680000000     0.135450000000     0.011797   
C96      C      0.463080000000     0.037590000000     0.133940000000    -0.0555132  
C97      C      0.545840000000     0.261740000000     0.150750000000    -0.0557361  
C98      C      0.496730000000     0.255270000000     0.160970000000     0.0215574  
C99      C      0.463060000000     0.229690000000     0.169740000000    -0.0555226  
C100     C      0.477980000000     0.211080000000     0.167960000000     0.0118648  
C101     C      0.527140000000     0.217730000000     0.157840000000    -0.0710699  
C102     C      0.560940000000     0.243270000000     0.149410000000     0.0120285  
C103     C      0.480390000000     0.274970000000     0.161630000000     0.0215787  
C104     C      0.515690000000     0.300920000000     0.168100000000    -0.0555306  
C105     C      0.500640000000     0.319520000000     0.167330000000     0.0118367  
C106     C      0.449800000000     0.312500000000     0.160540000000    -0.071012   
C107     C      0.414360000000     0.286580000000     0.154590000000     0.0118522  
C108     C      0.429510000000     0.268100000000     0.154920000000    -0.0558468  
C109     C      0.606860000000     0.178230000000     0.009100000000    -0.0557188  
C110     C      0.657600000000     0.187160000000     0.000020000000     0.0216033  
C111     C      0.695990000000     0.194280000000     0.021630000000    -0.0558521  
C112     C      0.683450000000     0.191520000000     0.051640000000     0.0116545  
C113     C      0.632290000000     0.181550000000     0.060550000000    -0.0711408  
C114     C      0.594380000000     0.175470000000     0.038960000000     0.0117931  
C115     C      0.669100000000     0.186630000000     0.968260000000     0.0214526  
C116     C      0.701280000000     0.177140000000     0.959570000000    -0.0557944  
C117     C      0.707420000000     0.173510000000     0.929840000000     0.0117704  
C118     C      0.681540000000     0.179250000000     0.907990000000    -0.0710997  
C119     C      0.650900000000     0.189690000000     0.916470000000     0.0115819  
C120     C      0.644690000000     0.193320000000     0.946360000000    -0.0557739  
C121     C      0.665880000000     0.156820000000     0.676000000000    -0.0558559  
C122     C      0.647800000000     0.173180000000     0.666830000000     0.0215201  
C123     C      0.633360000000     0.185240000000     0.688380000000    -0.0558136  
C124     C      0.638900000000     0.181810000000     0.718400000000     0.0116462  
C125     C      0.659070000000     0.166290000000     0.727400000000    -0.0711511  
C126     C      0.671420000000     0.153420000000     0.705880000000     0.0118852  
C127     C      0.648870000000     0.179430000000     0.635060000000     0.021541   
C128     C      0.667560000000     0.205000000000     0.626340000000    -0.0558667  
C129     C      0.674740000000     0.211690000000     0.596620000000     0.0118589  
C130     C      0.663430000000     0.193000000000     0.574780000000    -0.0710647  
C131     C      0.642830000000     0.167230000000     0.583280000000     0.0115891  
C132     C      0.635680000000     0.160510000000     0.613170000000    -0.0558357  
C133     C      0.933540000000     0.236260000000     0.486810000000    -0.0555652  
C134     C      0.969910000000     0.260920000000     0.496740000000     0.0215245  
C135     C      0.952810000000     0.278040000000     0.504890000000    -0.055422   
C136     C      0.900880000000     0.270800000000     0.502690000000     0.0116513  
C137     C      0.864830000000     0.246140000000     0.492740000000    -0.0708482  
C138     C      0.881680000000     0.228920000000     0.485030000000     0.0118428  
C139     C      0.025530000000     0.268990000000     0.497540000000     0.0215982  
C140     C      0.041960000000     0.251390000000     0.504620000000    -0.0554705  
C141     C      0.094150000000     0.258860000000     0.503930000000     0.0116951  
C142     C      0.131010000000     0.284170000000     0.496550000000    -0.0710826  
C143     C      0.114710000000     0.301830000000     0.489970000000     0.0118315  
C144     C      0.062730000000     0.294320000000     0.490260000000    -0.0557671  
C145     C      0.569570000000     0.279370000000     0.469730000000    -0.0554964  
C146     C      0.518460000000     0.262160000000     0.478140000000     0.0215529  
C147     C      0.505660000000     0.237290000000     0.487220000000    -0.0557451  
C148     C      0.542680000000     0.229800000000     0.487800000000     0.0119317  
C149     C      0.593710000000     0.247050000000     0.479730000000    -0.0709599  
C150     C      0.606880000000     0.271950000000     0.470740000000     0.0117398  
C151     C      0.478910000000     0.270220000000     0.478280000000     0.0215245  
C152     C      0.492280000000     0.295440000000     0.486160000000    -0.0557445  
C153     C      0.455160000000     0.302860000000     0.487230000000     0.011779   
C154     C      0.403510000000     0.285200000000     0.480850000000    -0.0708696  
C155     C      0.389850000000     0.260000000000     0.472930000000     0.0117467  
C156     C      0.427210000000     0.252640000000     0.471420000000    -0.0555052  
C157     C      0.649420000000     0.163370000000     0.354870000000    -0.0557642  
C158     C      0.673490000000     0.182700000000     0.333380000000     0.0215179  
C159     C      0.706240000000     0.208090000000     0.342610000000    -0.0557798  
C160     C      0.713210000000     0.214190000000     0.372520000000     0.0117736  
C161     C      0.687610000000     0.195080000000     0.394000000000    -0.0710052  
C162     C      0.656460000000     0.169490000000     0.384920000000     0.0115474  
C163     C      0.661110000000     0.177050000000     0.301580000000     0.0215601  
C164     C      0.698990000000     0.189370000000     0.279750000000    -0.0558413  
C165     C      0.685710000000     0.186210000000     0.249840000000     0.0116372  
C166     C      0.634300000000     0.170740000000     0.241240000000    -0.0711287  
C167     C      0.596860000000     0.157740000000     0.263030000000     0.0118202  
C168     C      0.610080000000     0.160840000000     0.292790000000    -0.0558361  
C169     C      0.632260000000     0.738660000000     0.480800000000     0.284348   
C170     C      0.809740000000     0.738000000000     0.490430000000     0.284188   
C171     C      0.675340000000     0.701030000000     0.543620000000     0.284388   
C172     C      0.692220000000     0.702460000000     0.425420000000     0.284241   
C173     C      0.544430000000     0.609520000000     0.146110000000     0.284416   
C174     C      0.544000000000     0.698490000000     0.156070000000     0.284437   
C175     C      0.618490000000     0.668630000000     0.210030000000     0.284591   
C176     C      0.617170000000     0.676220000000     0.091890000000     0.284492   
C177     C      0.364710000000     0.793390000000     0.482770000000     0.28457    
C178     C      0.186300000000     0.792530000000     0.495120000000     0.284336   
C179     C      0.324240000000     0.831160000000     0.547100000000     0.284929   
C180     C      0.302370000000     0.829300000000     0.429670000000     0.284833   
C181     C      0.433080000000     0.831810000000     0.159230000000     0.284698   
C182     C      0.433650000000     0.920700000000     0.146460000000     0.284472   
C183     C      0.353920000000     0.850510000000     0.096290000000     0.285263   
C184     C      0.362730000000     0.862970000000     0.213510000000     0.284941   
C185     C      0.179890000000     0.828520000000     0.813190000000     0.284578   
C186     C      0.356450000000     0.917100000000     0.828420000000     0.284465   
C187     C      0.294290000000     0.848180000000     0.879920000000     0.285526   
C188     C      0.319470000000     0.859240000000     0.763380000000     0.285486   
C189     C      0.624410000000     0.605680000000     0.823800000000     0.284131   
C190     C      0.802960000000     0.694750000000     0.813060000000     0.284089   
C191     C      0.669730000000     0.664170000000     0.758780000000     0.284595   
C192     C      0.685500000000     0.673210000000     0.876840000000     0.284527   
C193     C      0.483970000000     0.478890000000     0.824840000000    -0.0557649  
C194     C      0.470330000000     0.497610000000     0.831060000000     0.0215147  
C195     C      0.418420000000     0.489450000000     0.837130000000    -0.0553645  
C196     C      0.381130000000     0.963320000000     0.836400000000     0.0116326  
C197     C      0.395080000000     0.944780000000     0.830040000000    -0.0708847  
C198     C      0.446950000000     0.952860000000     0.824550000000     0.0117182  
C199     C      0.509900000000     0.525470000000     0.830160000000     0.021503   
C200     C      0.560910000000     0.534130000000     0.839040000000    -0.0554242  
C201     C      0.598420000000     0.560120000000     0.836790000000     0.0117355  
C202     C      0.585590000000     0.578090000000     0.826090000000    -0.0709103  
C203     C      0.534630000000     0.569570000000     0.817640000000     0.0119024  
C204     C      0.497390000000     0.543610000000     0.819440000000    -0.055598   
C205     C      0.926920000000     0.758300000000     0.818160000000    -0.0555572  
C206     C      0.963520000000     0.751870000000     0.808610000000     0.0214855  
C207     C      0.946510000000     0.726240000000     0.800210000000    -0.0554269  
C208     C      0.894450000000     0.707530000000     0.801790000000     0.0116832  
C209     C      0.858190000000     0.714120000000     0.811340000000    -0.0707783  
C210     C      0.874960000000     0.739730000000     0.819300000000     0.011758   
C211     C      0.019210000000     0.771610000000     0.808470000000     0.021552   
C212     C      0.035970000000     0.797580000000     0.801880000000    -0.0554464  
C213     C      0.088130000000     0.816210000000     0.803320000000     0.0117548  
C214     C      0.124690000000     0.809220000000     0.810920000000    -0.0710846  
C215     C      0.108110000000     0.783270000000     0.816950000000     0.0118142  
C216     C      0.056130000000     0.764770000000     0.815950000000    -0.0558187  
C217     C      0.287810000000     0.845220000000     0.023810000000    -0.05551    
C218     C      0.313910000000     0.837010000000     0.004790000000     0.0221866  
C219     C      0.349080000000     0.830700000000     0.017110000000    -0.0561486  
C220     C      0.360430000000     0.834170000000     0.047140000000     0.0138037  
C221     C      0.335920000000     0.843370000000     0.065730000000    -0.0723087  
C222     C      0.298320000000     0.848080000000     0.054050000000     0.0130456  
C223     C      0.307180000000     0.836800000000     0.972180000000     0.021935   
C224     C      0.259980000000     0.831560000000     0.959940000000    -0.056053   
C225     C      0.255520000000     0.834430000000     0.929750000000     0.0134485  
C226     C      0.297730000000     0.841970000000     0.910950000000    -0.0722347  
C227     C      0.344050000000     0.845720000000     0.922680000000     0.0129283  
C228     C      0.348940000000     0.843450000000     0.953020000000    -0.0554621  
C229     C      0.330470000000     0.831700000000     0.690770000000    -0.0554581  
C230     C      0.346190000000     0.852900000000     0.671720000000     0.0220464  
C231     C      0.357870000000     0.876720000000     0.684000000000    -0.0560785  
C232     C      0.350880000000     0.878870000000     0.714040000000     0.0135936  
C233     C      0.333330000000     0.857460000000     0.732680000000    -0.0722566  
C234     C      0.324680000000     0.834050000000     0.721000000000     0.0130114  
C235     C      0.347000000000     0.849750000000     0.639130000000     0.0220206  
C236     C      0.358360000000     0.831600000000     0.627070000000    -0.0560244  
C237     C      0.352740000000     0.826320000000     0.596930000000     0.0134526  
C238     C      0.336940000000     0.839520000000     0.577980000000    -0.0720159  
C239     C      0.328710000000     0.858790000000     0.589490000000     0.0128634  
C240     C      0.333110000000     0.863670000000     0.619810000000    -0.0554477  
C241     C      0.341140000000     0.868650000000     0.359250000000    -0.0558554  
C242     C      0.315880000000     0.849360000000     0.337820000000     0.0216127  
C243     C      0.283960000000     0.823920000000     0.347130000000    -0.0559045  
C244     C      0.278820000000     0.817720000000     0.376990000000     0.0119217  
C245     C      0.305480000000     0.836780000000     0.398360000000    -0.0712211  
C246     C      0.335950000000     0.862410000000     0.389270000000     0.0117154  
C247     C      0.326110000000     0.855120000000     0.305880000000     0.0215553  
C248     C      0.286870000000     0.842620000000     0.284820000000    -0.0558214  
C249     C      0.298180000000     0.845650000000     0.254660000000     0.0117824  
C250     C      0.348940000000     0.861220000000     0.245030000000    -0.0713656  
C251     C      0.387690000000     0.874540000000     0.266060000000     0.011934   
C252     C      0.376440000000     0.871520000000     0.296080000000    -0.0557914  
C253     C      0.515610000000     0.492650000000     0.134260000000    -0.0554626  
C254     C      0.481090000000     0.501190000000     0.141710000000     0.0215742  
C255     C      0.430950000000     0.482860000000     0.150160000000    -0.0557606  
C256     C      0.415770000000     0.956820000000     0.151230000000     0.0118596  
C257     C      0.450450000000     0.948370000000     0.144280000000    -0.0710978  
C258     C      0.500540000000     0.966520000000     0.135730000000     0.0116738  
C259     C      0.497520000000     0.529090000000     0.141720000000     0.0215881  
C260     C      0.547420000000     0.547430000000     0.150560000000    -0.0556951  
C261     C      0.562440000000     0.573470000000     0.151670000000     0.0119151  
C262     C      0.527810000000     0.581860000000     0.144350000000    -0.0710018  
C263     C      0.477960000000     0.563680000000     0.135450000000     0.0117903  
C264     C      0.463080000000     0.537590000000     0.133940000000    -0.0554953  
C265     C      0.545840000000     0.761740000000     0.150750000000    -0.0557168  
C266     C      0.496730000000     0.755270000000     0.160970000000     0.0215464  
C267     C      0.463060000000     0.729690000000     0.169740000000    -0.0555013  
C268     C      0.477980000000     0.711080000000     0.167960000000     0.0118218  
C269     C      0.527140000000     0.717730000000     0.157840000000    -0.0710363  
C270     C      0.560940000000     0.743270000000     0.149410000000     0.0119926  
C271     C      0.480390000000     0.774970000000     0.161630000000     0.0215808  
C272     C      0.515690000000     0.800920000000     0.168100000000    -0.0555307  
C273     C      0.500640000000     0.819520000000     0.167330000000     0.011836   
C274     C      0.449800000000     0.812500000000     0.160540000000    -0.0710093  
C275     C      0.414360000000     0.786580000000     0.154590000000     0.0118457  
C276     C      0.429510000000     0.768100000000     0.154920000000    -0.055837   
C277     C      0.606860000000     0.678230000000     0.009100000000    -0.0557191  
C278     C      0.657600000000     0.687160000000     0.000020000000     0.0215995  
C279     C      0.695990000000     0.694280000000     0.021630000000    -0.055849   
C280     C      0.683450000000     0.691520000000     0.051640000000     0.0116514  
C281     C      0.632290000000     0.681550000000     0.060550000000    -0.0711445  
C282     C      0.594380000000     0.675470000000     0.038960000000     0.0117988  
C283     C      0.669100000000     0.686630000000     0.968260000000     0.0214647  
C284     C      0.701280000000     0.677140000000     0.959570000000    -0.0558203  
C285     C      0.707420000000     0.673510000000     0.929840000000     0.0118218  
C286     C      0.681540000000     0.679250000000     0.907990000000    -0.0711227  
C287     C      0.650900000000     0.689690000000     0.916470000000     0.011594   
C288     C      0.644690000000     0.693320000000     0.946360000000    -0.0557836  
C289     C      0.665880000000     0.656820000000     0.676000000000    -0.0558423  
C290     C      0.647810000000     0.673180000000     0.666830000000     0.0215478  
C291     C      0.633360000000     0.685250000000     0.688380000000    -0.0558897  
C292     C      0.638900000000     0.681810000000     0.718400000000     0.0116731  
C293     C      0.659070000000     0.666290000000     0.727400000000    -0.0711307  
C294     C      0.671430000000     0.653420000000     0.705880000000     0.0118281  
C295     C      0.648870000000     0.679430000000     0.635060000000     0.0214995  
C296     C      0.667560000000     0.705000000000     0.626340000000    -0.0558441  
C297     C      0.674740000000     0.711690000000     0.596620000000     0.0118411  
C298     C      0.663430000000     0.693000000000     0.574780000000    -0.0710428  
C299     C      0.642830000000     0.667230000000     0.583280000000     0.0115446  
C300     C      0.635680000000     0.660510000000     0.613170000000    -0.055742   
C301     C      0.933540000000     0.736250000000     0.486810000000    -0.0556569  
C302     C      0.969910000000     0.760920000000     0.496740000000     0.0215511  
C303     C      0.952810000000     0.778050000000     0.504890000000    -0.0554912  
C304     C      0.900880000000     0.770800000000     0.502690000000     0.0117083  
C305     C      0.864830000000     0.746140000000     0.492740000000    -0.0708888  
C306     C      0.881680000000     0.728920000000     0.485030000000     0.0118972  
C307     C      0.025530000000     0.768990000000     0.497540000000     0.0215862  
C308     C      0.041960000000     0.751390000000     0.504620000000    -0.0554582  
C309     C      0.094150000000     0.758860000000     0.503930000000     0.0116762  
C310     C      0.131010000000     0.784170000000     0.496550000000    -0.0710627  
C311     C      0.114710000000     0.801830000000     0.489970000000     0.0118308  
C312     C      0.062730000000     0.794320000000     0.490260000000    -0.0557613  
C313     C      0.569570000000     0.779370000000     0.469730000000    -0.0555046  
C314     C      0.518460000000     0.762160000000     0.478140000000     0.0215577  
C315     C      0.505660000000     0.737290000000     0.487220000000    -0.0557524  
C316     C      0.542680000000     0.729800000000     0.487800000000     0.0119482  
C317     C      0.593710000000     0.747050000000     0.479730000000    -0.0709948  
C318     C      0.606880000000     0.771950000000     0.470740000000     0.01176    
C319     C      0.478910000000     0.770220000000     0.478280000000     0.021529   
C320     C      0.492280000000     0.795440000000     0.486160000000    -0.0557514  
C321     C      0.455160000000     0.802860000000     0.487230000000     0.0117951  
C322     C      0.403510000000     0.785200000000     0.480850000000    -0.0709034  
C323     C      0.389850000000     0.760000000000     0.472930000000     0.0117663  
C324     C      0.427210000000     0.752640000000     0.471420000000    -0.0555131  
C325     C      0.649420000000     0.663360000000     0.354870000000    -0.0558195  
C326     C      0.673490000000     0.682700000000     0.333380000000     0.021514   
C327     C      0.706240000000     0.708090000000     0.342610000000    -0.055732   
C328     C      0.713210000000     0.714190000000     0.372520000000     0.0117543  
C329     C      0.687610000000     0.695080000000     0.394000000000    -0.0710064  
C330     C      0.656460000000     0.669490000000     0.384920000000     0.0115691  
C331     C      0.661100000000     0.677050000000     0.301580000000     0.0215601  
C332     C      0.698980000000     0.689370000000     0.279750000000    -0.0558116  
C333     C      0.685710000000     0.686210000000     0.249840000000     0.0116335  
C334     C      0.634310000000     0.670740000000     0.241240000000    -0.0711063  
C335     C      0.596860000000     0.657740000000     0.263030000000     0.0118098  
C336     C      0.610070000000     0.660840000000     0.292790000000    -0.055854   
Cd1      Cd     0.702380000000     0.219800000000     0.484860000000     0.513014   
Cd2      Cd     0.581570000000     0.163390000000     0.151090000000     0.51304    
Cd3      Cd     0.293980000000     0.311650000000     0.488850000000     0.512783   
Cd4      Cd     0.395650000000     0.366880000000     0.153830000000     0.512775   
Cd5      Cd     0.287180000000     0.363260000000     0.821280000000     0.512098   
Cd6      Cd     0.695340000000     0.159470000000     0.818060000000     0.512968   
Cd7      Cd     0.702380000000     0.719800000000     0.484860000000     0.513      
Cd8      Cd     0.581570000000     0.663390000000     0.151090000000     0.51304    
Cd9      Cd     0.293980000000     0.811650000000     0.488850000000     0.51278    
Cd10     Cd     0.395650000000     0.866880000000     0.153830000000     0.512776   
Cd11     Cd     0.287180000000     0.863260000000     0.821280000000     0.512126   
Cd12     Cd     0.695340000000     0.659470000000     0.818060000000     0.512958   
H1       H      0.406470000000     0.003230000000     0.842520000000     0.0496689  
H2       H      0.341500000000     0.457640000000     0.840900000000     0.046575   
H3       H      0.458980000000     0.439070000000     0.819340000000     0.047644   
H4       H      0.523130000000     0.984290000000     0.819430000000     0.0496462  
H5       H      0.571940000000     0.020870000000     0.847910000000     0.049627   
H6       H      0.637280000000     0.066180000000     0.843720000000     0.0465801  
H7       H      0.523560000000     0.082940000000     0.809120000000     0.0474287  
H8       H      0.459000000000     0.037750000000     0.811790000000     0.049715   
H9       H      0.973330000000     0.220590000000     0.792240000000     0.0496391  
H10      H      0.882570000000     0.187990000000     0.795280000000     0.0465838  
H11      H      0.847970000000     0.245400000000     0.826950000000     0.0475241  
H12      H      0.938360000000     0.277590000000     0.825410000000     0.0497488  
H13      H      0.008860000000     0.303570000000     0.795520000000     0.049711   
H14      H      0.099810000000     0.336030000000     0.798370000000     0.0465738  
H15      H      0.135290000000     0.277250000000     0.823110000000     0.0476622  
H16      H      0.044930000000     0.245190000000     0.821780000000     0.0496705  
H17      H      0.368850000000     0.323600000000     0.003490000000     0.0496166  
H18      H      0.389240000000     0.330130000000     0.055750000000     0.0448485  
H19      H      0.279230000000     0.355400000000     0.067940000000     0.0453672  
H20      H      0.260980000000     0.350640000000     0.015280000000     0.0499812  
H21      H      0.226570000000     0.325710000000     0.973710000000     0.0494996  
H22      H      0.219130000000     0.331140000000     0.921150000000     0.0452892  
H23      H      0.377270000000     0.351760000000     0.908650000000     0.0460417  
H24      H      0.386210000000     0.348070000000     0.961460000000     0.0499874  
H25      H      0.371460000000     0.393670000000     0.670350000000     0.0495148  
H26      H      0.358370000000     0.397260000000     0.722630000000     0.045074   
H27      H      0.310710000000     0.317210000000     0.734920000000     0.0457758  
H28      H      0.320300000000     0.312910000000     0.682280000000     0.049978   
H29      H      0.370590000000     0.321010000000     0.640950000000     0.0495465  
H30      H      0.359870000000     0.311530000000     0.588480000000     0.0451199  
H31      H      0.316070000000     0.369070000000     0.575340000000     0.0456606  
H32      H      0.323260000000     0.377530000000     0.628110000000     0.0499659  
H33      H      0.264540000000     0.308530000000     0.331300000000     0.0502581  
H34      H      0.254790000000     0.297770000000     0.383240000000     0.0481535  
H35      H      0.356670000000     0.377530000000     0.405240000000     0.0470809  
H36      H      0.365590000000     0.388500000000     0.352790000000     0.049908   
H37      H      0.247540000000     0.330090000000     0.291670000000     0.0498898  
H38      H      0.267460000000     0.335300000000     0.238980000000     0.0471216  
H39      H      0.427230000000     0.386810000000     0.259390000000     0.0480802  
H40      H      0.407710000000     0.381180000000     0.311620000000     0.0502034  
H41      H      0.403540000000     0.988610000000     0.156660000000     0.0497945  
H42      H      0.376930000000     0.443330000000     0.158120000000     0.0478029  
H43      H      0.527980000000     0.460550000000     0.130060000000     0.0466241  
H44      H      0.554300000000     0.006120000000     0.127170000000     0.0497027  
H45      H      0.574740000000     0.041690000000     0.157300000000     0.0497953  
H46      H      0.601110000000     0.087010000000     0.158790000000     0.0475652  
H47      H      0.450600000000     0.069620000000     0.129440000000     0.0467243  
H48      H      0.424600000000     0.024120000000     0.126520000000     0.0496987  
H49      H      0.425230000000     0.224020000000     0.178200000000     0.0496847  
H50      H      0.451280000000     0.191580000000     0.174820000000     0.0466036  
H51      H      0.599030000000     0.248970000000     0.141300000000     0.0474481  
H52      H      0.572490000000     0.281000000000     0.143190000000     0.0497491  
H53      H      0.555000000000     0.306930000000     0.173890000000     0.0497578  
H54      H      0.528680000000     0.339330000000     0.172210000000     0.046693   
H55      H      0.374910000000     0.280560000000     0.149060000000     0.0473449  
H56      H      0.401420000000     0.248510000000     0.149230000000     0.0496424  
H57      H      0.735590000000     0.201510000000     0.015340000000     0.0499007  
H58      H      0.713530000000     0.196540000000     0.067770000000     0.0470138  
H59      H      0.554570000000     0.167860000000     0.045060000000     0.0481418  
H60      H      0.576220000000     0.172250000000     0.993130000000     0.0501514  
H61      H      0.720090000000     0.171440000000     0.975780000000     0.0501915  
H62      H      0.731570000000     0.165550000000     0.924070000000     0.0481514  
H63      H      0.630770000000     0.194460000000     0.900130000000     0.0470275  
H64      H      0.620060000000     0.200950000000     0.952340000000     0.0498471  
H65      H      0.618710000000     0.197740000000     0.682010000000     0.0498579  
H66      H      0.628700000000     0.191830000000     0.734470000000     0.0470556  
H67      H      0.686820000000     0.141190000000     0.712060000000     0.048097   
H68      H      0.677990000000     0.147500000000     0.660080000000     0.0502257  
H69      H      0.678810000000     0.220120000000     0.642540000000     0.0502331  
H70      H      0.690430000000     0.231740000000     0.590840000000     0.0481444  
H71      H      0.633450000000     0.152390000000     0.566940000000     0.0469612  
H72      H      0.620660000000     0.140570000000     0.619170000000     0.0498733  
H73      H      0.979450000000     0.297050000000     0.513130000000     0.0496862  
H74      H      0.888940000000     0.284390000000     0.509040000000     0.0467763  
H75      H      0.854840000000     0.209800000000     0.477110000000     0.0475346  
H76      H      0.945130000000     0.222690000000     0.479770000000     0.0497406  
H77      H      0.014570000000     0.231820000000     0.510810000000     0.049748   
H78      H      0.105610000000     0.244880000000     0.509280000000     0.046579   
H79      H      0.142110000000     0.321460000000     0.483960000000     0.0478721  
H80      H      0.051770000000     0.308310000000     0.484070000000     0.0497859  
H81      H      0.467180000000     0.223660000000     0.494480000000     0.0497302  
H82      H      0.531360000000     0.210510000000     0.495060000000     0.0475273  
H83      H      0.645830000000     0.285590000000     0.464200000000     0.0465909  
H84      H      0.580800000000     0.298550000000     0.462150000000     0.0496998  
H85      H      0.531300000000     0.309400000000     0.492180000000     0.0496435  
H86      H      0.466890000000     0.322410000000     0.493610000000     0.0473747  
H87      H      0.350420000000     0.246040000000     0.467680000000     0.0467292  
H88      H      0.415490000000     0.233180000000     0.464740000000     0.049745   
H89      H      0.724850000000     0.223510000000     0.326730000000     0.0502254  
H90      H      0.737730000000     0.234110000000     0.378750000000     0.0481541  
H91      H      0.636520000000     0.154330000000     0.400950000000     0.0470685  
H92      H      0.624400000000     0.143550000000     0.348460000000     0.0498715  
H93      H      0.738780000000     0.201780000000     0.285810000000     0.0499109  
H94      H      0.715440000000     0.196340000000     0.233550000000     0.0469975  
H95      H      0.556880000000     0.145550000000     0.257180000000     0.0481607  
H96      H      0.579810000000     0.151350000000     0.308940000000     0.0502347  
H97      H      0.406470000000     0.503230000000     0.842520000000     0.0496941  
H98      H      0.341500000000     0.957640000000     0.840900000000     0.0465832  
H99      H      0.458980000000     0.939070000000     0.819340000000     0.0476449  
H100     H      0.523130000000     0.484290000000     0.819430000000     0.049631   
H101     H      0.571940000000     0.520870000000     0.847920000000     0.0496169  
H102     H      0.637280000000     0.566180000000     0.843720000000     0.0466035  
H103     H      0.523560000000     0.582940000000     0.809120000000     0.0474409  
H104     H      0.459000000000     0.537750000000     0.811790000000     0.0497157  
H105     H      0.973330000000     0.720590000000     0.792240000000     0.0496312  
H106     H      0.882570000000     0.687990000000     0.795280000000     0.0465961  
H107     H      0.847970000000     0.745400000000     0.826950000000     0.0475405  
H108     H      0.938360000000     0.777600000000     0.825410000000     0.0496977  
H109     H      0.008860000000     0.803570000000     0.795520000000     0.0497174  
H110     H      0.099810000000     0.836030000000     0.798370000000     0.0465569  
H111     H      0.135290000000     0.777250000000     0.823110000000     0.0476225  
H112     H      0.044940000000     0.745190000000     0.821780000000     0.0496821  
H113     H      0.368850000000     0.823600000000     0.003490000000     0.0495871  
H114     H      0.389240000000     0.830120000000     0.055750000000     0.0448387  
H115     H      0.279230000000     0.855400000000     0.067940000000     0.0453676  
H116     H      0.260980000000     0.850640000000     0.015280000000     0.0499805  
H117     H      0.226570000000     0.825710000000     0.973710000000     0.0495071  
H118     H      0.219120000000     0.831140000000     0.921150000000     0.0452776  
H119     H      0.377280000000     0.851760000000     0.908650000000     0.0460327  
H120     H      0.386210000000     0.848070000000     0.961460000000     0.0500134  
H121     H      0.371460000000     0.893670000000     0.670350000000     0.0495197  
H122     H      0.358370000000     0.897260000000     0.722630000000     0.0450725  
H123     H      0.310710000000     0.817210000000     0.734920000000     0.0457727  
H124     H      0.320290000000     0.812910000000     0.682280000000     0.0499864  
H125     H      0.370590000000     0.821010000000     0.640950000000     0.0495475  
H126     H      0.359870000000     0.811530000000     0.588480000000     0.0451209  
H127     H      0.316070000000     0.869070000000     0.575340000000     0.0456624  
H128     H      0.323260000000     0.877530000000     0.628110000000     0.0499672  
H129     H      0.264540000000     0.808530000000     0.331300000000     0.0502593  
H130     H      0.254790000000     0.797770000000     0.383240000000     0.0481537  
H131     H      0.356670000000     0.877530000000     0.405240000000     0.0470828  
H132     H      0.365590000000     0.888500000000     0.352790000000     0.0499111  
H133     H      0.247540000000     0.830090000000     0.291670000000     0.049888   
H134     H      0.267460000000     0.835300000000     0.238980000000     0.0471254  
H135     H      0.427220000000     0.886810000000     0.259390000000     0.0480969  
H136     H      0.407710000000     0.881180000000     0.311620000000     0.0501993  
H137     H      0.403540000000     0.488610000000     0.156660000000     0.0498014  
H138     H      0.376930000000     0.943330000000     0.158120000000     0.0478165  
H139     H      0.527980000000     0.960550000000     0.130060000000     0.0466415  
H140     H      0.554300000000     0.506120000000     0.127170000000     0.0497439  
H141     H      0.574740000000     0.541690000000     0.157300000000     0.0497943  
H142     H      0.601110000000     0.587010000000     0.158790000000     0.0475688  
H143     H      0.450600000000     0.569620000000     0.129440000000     0.0467283  
H144     H      0.424600000000     0.524120000000     0.126520000000     0.0497005  
H145     H      0.425230000000     0.724020000000     0.178200000000     0.04968    
H146     H      0.451280000000     0.691590000000     0.174820000000     0.0466119  
H147     H      0.599020000000     0.748970000000     0.141300000000     0.0474577  
H148     H      0.572490000000     0.781000000000     0.143190000000     0.049745   
H149     H      0.555000000000     0.806930000000     0.173890000000     0.049759   
H150     H      0.528680000000     0.839330000000     0.172210000000     0.0466947  
H151     H      0.374910000000     0.780560000000     0.149060000000     0.0473455  
H152     H      0.401410000000     0.748510000000     0.149230000000     0.0496371  
H153     H      0.735590000000     0.701510000000     0.015340000000     0.0499002  
H154     H      0.713530000000     0.696540000000     0.067770000000     0.0470137  
H155     H      0.554570000000     0.667860000000     0.045060000000     0.0481418  
H156     H      0.576220000000     0.672250000000     0.993130000000     0.050152   
H157     H      0.720090000000     0.671440000000     0.975780000000     0.0501978  
H158     H      0.731570000000     0.665540000000     0.924070000000     0.0481361  
H159     H      0.630770000000     0.694460000000     0.900130000000     0.0470248  
H160     H      0.620060000000     0.700950000000     0.952340000000     0.04985    
H161     H      0.618710000000     0.697740000000     0.682010000000     0.0499032  
H162     H      0.628700000000     0.691830000000     0.734470000000     0.0470518  
H163     H      0.686810000000     0.641190000000     0.712060000000     0.0481158  
H164     H      0.677990000000     0.647500000000     0.660080000000     0.0502241  
H165     H      0.678810000000     0.720120000000     0.642540000000     0.0502288  
H166     H      0.690430000000     0.731740000000     0.590840000000     0.0481495  
H167     H      0.633450000000     0.652390000000     0.566940000000     0.0469745  
H168     H      0.620660000000     0.640560000000     0.619170000000     0.0498277  
H169     H      0.979460000000     0.797050000000     0.513130000000     0.0497209  
H170     H      0.888940000000     0.784390000000     0.509040000000     0.0467658  
H171     H      0.854840000000     0.709800000000     0.477110000000     0.0475287  
H172     H      0.945130000000     0.722690000000     0.479770000000     0.0497899  
H173     H      0.014570000000     0.731820000000     0.510810000000     0.0497463  
H174     H      0.105610000000     0.744880000000     0.509280000000     0.046583   
H175     H      0.142120000000     0.821460000000     0.483960000000     0.0478795  
H176     H      0.051770000000     0.808310000000     0.484070000000     0.0497857  
H177     H      0.467180000000     0.723660000000     0.494480000000     0.0497328  
H178     H      0.531360000000     0.710510000000     0.495060000000     0.0475233  
H179     H      0.645830000000     0.785590000000     0.464200000000     0.0465906  
H180     H      0.580800000000     0.798550000000     0.462150000000     0.0497031  
H181     H      0.531300000000     0.809400000000     0.492180000000     0.0496465  
H182     H      0.466890000000     0.822410000000     0.493610000000     0.0473714  
H183     H      0.350420000000     0.746040000000     0.467680000000     0.0467289  
H184     H      0.415490000000     0.733180000000     0.464740000000     0.0497478  
H185     H      0.724850000000     0.723520000000     0.326730000000     0.0501995  
H186     H      0.737730000000     0.734110000000     0.378750000000     0.0481592  
H187     H      0.636520000000     0.654330000000     0.400950000000     0.0470658  
H188     H      0.624400000000     0.643550000000     0.348460000000     0.0499073  
H189     H      0.738780000000     0.701780000000     0.285810000000     0.0498961  
H190     H      0.715440000000     0.696340000000     0.233550000000     0.0469996  
H191     H      0.556880000000     0.645550000000     0.257180000000     0.0481646  
H192     H      0.579810000000     0.651350000000     0.308940000000     0.0502476  
O1       O      0.793290000000     0.253840000000     0.491040000000    -0.229826   
O2       O      0.671820000000     0.186120000000     0.446160000000    -0.230306   
O3       O      0.680410000000     0.254360000000     0.480230000000    -0.22953    
O4       O      0.699090000000     0.224680000000     0.537030000000    -0.239941   
O5       O      0.663720000000     0.185140000000     0.522440000000    -0.229995   
O6       O      0.618120000000     0.215010000000     0.482850000000    -0.239256   
O7       O      0.776500000000     0.214460000000     0.487430000000    -0.23917    
O8       O      0.716120000000     0.225950000000     0.432730000000    -0.239873   
O9       O      0.512800000000     0.174380000000     0.156890000000    -0.229827   
O10      O      0.649500000000     0.182230000000     0.112770000000    -0.230156   
O11      O      0.512990000000     0.117870000000     0.145820000000    -0.229809   
O12      O      0.571340000000     0.156720000000     0.203280000000    -0.239987   
O13      O      0.650360000000     0.178810000000     0.188950000000    -0.230362   
O14      O      0.591600000000     0.126110000000     0.148450000000    -0.239276   
O15      O      0.591150000000     0.205630000000     0.153250000000    -0.239261   
O16      O      0.570160000000     0.164540000000     0.098970000000    -0.239949   
O17      O      0.203180000000     0.276870000000     0.494930000000    -0.230287   
O18      O      0.323950000000     0.345540000000     0.450370000000    -0.230044   
O19      O      0.316670000000     0.277480000000     0.483740000000    -0.229222   
O20      O      0.306830000000     0.307790000000     0.540430000000    -0.239176   
O21      O      0.327920000000     0.346300000000     0.526400000000    -0.229855   
O22      O      0.378520000000     0.317040000000     0.484190000000    -0.238954   
O23      O      0.219290000000     0.316180000000     0.493070000000    -0.239864   
O24      O      0.278350000000     0.305800000000     0.436880000000    -0.240269   
O25      O      0.464820000000     0.412190000000     0.146350000000    -0.230609   
O26      O      0.329590000000     0.351980000000     0.193190000000    -0.230268   
O27      O      0.464570000000     0.355880000000     0.157830000000    -0.229014   
O28      O      0.400780000000     0.359180000000     0.102370000000    -0.239212   
O29      O      0.324740000000     0.349360000000     0.117260000000    -0.229781   
O30      O      0.385740000000     0.324750000000     0.158640000000    -0.239      
O31      O      0.386540000000     0.404280000000     0.149380000000    -0.23992    
O32      O      0.409350000000     0.375170000000     0.205690000000    -0.240246   
O33      O      0.308400000000     0.408750000000     0.826710000000    -0.229667   
O34      O      0.321140000000     0.345340000000     0.784030000000    -0.229648   
O35      O      0.196610000000     0.352610000000     0.814400000000    -0.229887   
O36      O      0.264490000000     0.356430000000     0.872680000000    -0.239417   
O37      O      0.321950000000     0.346740000000     0.859650000000    -0.22998    
O38      O      0.212910000000     0.321390000000     0.815060000000    -0.239337   
O39      O      0.370620000000     0.400500000000     0.827540000000    -0.239282   
O40      O      0.303080000000     0.374330000000     0.769910000000    -0.239459   
O41      O      0.786300000000     0.170650000000     0.812670000000    -0.229715   
O42      O      0.665180000000     0.178940000000     0.855700000000    -0.230126   
O43      O      0.672490000000     0.113950000000     0.824550000000    -0.229844   
O44      O      0.692980000000     0.152300000000     0.765980000000    -0.239935   
O45      O      0.657800000000     0.174470000000     0.779550000000    -0.230381   
O46      O      0.610620000000     0.122300000000     0.820630000000    -0.239108   
O47      O      0.769830000000     0.201770000000     0.815470000000    -0.239122   
O48      O      0.708980000000     0.161330000000     0.870210000000    -0.240032   
O49      O      0.793290000000     0.753840000000     0.491040000000    -0.229842   
O50      O      0.671820000000     0.686120000000     0.446160000000    -0.230305   
O51      O      0.680400000000     0.754360000000     0.480230000000    -0.229592   
O52      O      0.699090000000     0.724680000000     0.537030000000    -0.239939   
O53      O      0.663720000000     0.685140000000     0.522440000000    -0.229992   
O54      O      0.618120000000     0.715010000000     0.482850000000    -0.239284   
O55      O      0.776510000000     0.714460000000     0.487430000000    -0.239185   
O56      O      0.716120000000     0.725950000000     0.432730000000    -0.239874   
O57      O      0.512800000000     0.674380000000     0.156890000000    -0.22982    
O58      O      0.649500000000     0.682230000000     0.112770000000    -0.230182   
O59      O      0.512990000000     0.617870000000     0.145820000000    -0.229808   
O60      O      0.571340000000     0.656720000000     0.203280000000    -0.24004    
O61      O      0.650360000000     0.678810000000     0.188950000000    -0.230339   
O62      O      0.591600000000     0.626110000000     0.148450000000    -0.239274   
O63      O      0.591150000000     0.705630000000     0.153250000000    -0.239257   
O64      O      0.570160000000     0.664540000000     0.098970000000    -0.239895   
O65      O      0.203180000000     0.776870000000     0.494930000000    -0.230398   
O66      O      0.323950000000     0.845540000000     0.450370000000    -0.230043   
O67      O      0.316680000000     0.777480000000     0.483740000000    -0.229281   
O68      O      0.306830000000     0.807790000000     0.540430000000    -0.239175   
O69      O      0.327920000000     0.846300000000     0.526400000000    -0.229854   
O70      O      0.378520000000     0.817040000000     0.484190000000    -0.238981   
O71      O      0.219290000000     0.816180000000     0.493070000000    -0.239795   
O72      O      0.278350000000     0.805800000000     0.436880000000    -0.240269   
O73      O      0.464820000000     0.912190000000     0.146350000000    -0.230598   
O74      O      0.329590000000     0.851980000000     0.193190000000    -0.230263   
O75      O      0.464570000000     0.855880000000     0.157830000000    -0.229013   
O76      O      0.400780000000     0.859180000000     0.102370000000    -0.239213   
O77      O      0.324740000000     0.849360000000     0.117260000000    -0.229785   
O78      O      0.385740000000     0.824750000000     0.158640000000    -0.239      
O79      O      0.386540000000     0.904280000000     0.149390000000    -0.239904   
O80      O      0.409350000000     0.875170000000     0.205690000000    -0.240238   
O81      O      0.308400000000     0.908750000000     0.826710000000    -0.229664   
O82      O      0.321140000000     0.845340000000     0.784030000000    -0.229652   
O83      O      0.196610000000     0.852610000000     0.814400000000    -0.229926   
O84      O      0.264490000000     0.856430000000     0.872680000000    -0.239416   
O85      O      0.321950000000     0.846740000000     0.859650000000    -0.229982   
O86      O      0.212910000000     0.821400000000     0.815060000000    -0.239412   
O87      O      0.370620000000     0.900500000000     0.827540000000    -0.239282   
O88      O      0.303080000000     0.874330000000     0.769910000000    -0.239458   
O89      O      0.786300000000     0.670650000000     0.812670000000    -0.229678   
O90      O      0.665180000000     0.678940000000     0.855700000000    -0.230129   
O91      O      0.672500000000     0.613950000000     0.824550000000    -0.229754   
O92      O      0.692980000000     0.652300000000     0.765980000000    -0.239989   
O93      O      0.657800000000     0.674470000000     0.779550000000    -0.230361   
O94      O      0.610620000000     0.622300000000     0.820630000000    -0.239074   
O95      O      0.769820000000     0.701770000000     0.815470000000    -0.239038   
O96      O      0.708980000000     0.661330000000     0.870210000000    -0.240037   


