data_structure

_audit_creation_method RASPA-1.0
_audit_creation_date 2023-5-22
_audit_author_name 'Poobodin Mano'

_cell_length_a    68.6837
_cell_length_b    69.4297
_cell_length_c    68.1929
_cell_angle_alpha 90.0001
_cell_angle_beta  90.0002
_cell_angle_gamma 90.0001
_cell_volume      325191

_symmetry_cell_setting          triclinic
_symmetry_space_group_name_Hall 'P 1'
_symmetry_space_group_name_H-M  'P 1'
_symmetry_Int_Tables_number     1

_symmetry_equiv_pos_as_xyz 'x,y,z'

loop_
_atom_site_label
_atom_site_type_symbol
_atom_site_fract_x
_atom_site_fract_y
_atom_site_fract_z
_atom_site_charge
C1       C      0.102570000000     0.266140000000     0.900240000000     0.286353   
C2       C      0.106890000000     0.317910000000     0.950930000000     0.286644   
C3       C      0.141290000000     0.321560000000     0.897330000000     0.288791   
C4       C      0.067590000000     0.319260000000     0.894480000000     0.288883   
C5       C      0.192520000000     0.369620000000     0.121160000000     0.28814    
C6       C      0.139630000000     0.421310000000     0.124380000000     0.288343   
C7       C      0.137510000000     0.367940000000     0.086110000000     0.287787   
C8       C      0.139660000000     0.368090000000     0.160820000000     0.288357   
C9       C      0.106050000000     0.761500000000     0.087840000000     0.288446   
C10      C      0.111880000000     0.814120000000     0.039230000000     0.28918    
C11      C      0.071440000000     0.814550000000     0.096100000000     0.28825    
C12      C      0.143390000000     0.818830000000     0.095350000000     0.287258   
C13      C      0.082490000000     0.592350000000     0.198410000000     0.288874   
C14      C      0.031670000000     0.590980000000     0.145660000000     0.288046   
C15      C      0.081700000000     0.628080000000     0.139210000000     0.289216   
C16      C      0.088420000000     0.555960000000     0.143690000000     0.288033   
C17      C      0.092580000000     0.341150000000     0.298070000000     0.286039   
C18      C      0.041020000000     0.335970000000     0.349640000000     0.286389   
C19      C      0.094950000000     0.301920000000     0.353290000000     0.288992   
C20      C      0.095760000000     0.375330000000     0.352100000000     0.289467   
C21      C      0.364850000000     0.263330000000     0.099110000000     0.287381   
C22      C      0.364550000000     0.313530000000     0.046700000000     0.288489   
C23      C      0.328890000000     0.319750000000     0.101700000000     0.288008   
C24      C      0.401700000000     0.313430000000     0.105430000000     0.289525   
C25      C      0.861760000000     0.670530000000     0.093010000000     0.288458   
C26      C      0.856320000000     0.618100000000     0.041650000000     0.288473   
C27      C      0.896240000000     0.615560000000     0.095280000000     0.287749   
C28      C      0.822370000000     0.618050000000     0.097140000000     0.288287   
C29      C      0.685910000000     0.067480000000     0.874860000000     0.288331   
C30      C      0.639040000000     0.020860000000     0.868700000000     0.288373   
C31      C      0.629010000000     0.083590000000     0.904620000000     0.288755   
C32      C      0.623730000000     0.076280000000     0.837830000000     0.287958   
C33      C      0.571790000000     0.092590000000     0.701840000000     0.290658   
C34      C      0.526490000000     0.085990000000     0.651720000000     0.288898   
C35      C      0.580420000000     0.125360000000     0.640760000000     0.291784   
C36      C      0.588750000000     0.057180000000     0.646200000000     0.289435   
C37      C      0.359150000000     0.162040000000     0.596770000000     0.287893   
C38      C      0.355060000000     0.112020000000     0.543670000000     0.288419   
C39      C      0.391990000000     0.107530000000     0.599410000000     0.289524   
C40      C      0.319380000000     0.107960000000     0.600340000000     0.289178   
C41      C      0.083430000000     0.838810000000     0.702030000000     0.287504   
C42      C      0.031980000000     0.833430000000     0.649220000000     0.28805    
C43      C      0.085940000000     0.872180000000     0.645090000000     0.288563   
C44      C      0.085700000000     0.799210000000     0.648140000000     0.28881    
C45      C      0.635350000000     0.922630000000     0.621280000000     0.28762    
C46      C      0.685130000000     0.869840000000     0.617940000000     0.287471   
C47      C      0.631770000000     0.870080000000     0.659820000000     0.289247   
C48      C      0.629670000000     0.867190000000     0.585570000000     0.288758   
C49      C      0.584920000000     0.848280000000     0.797970000000     0.286873   
C50      C      0.533300000000     0.847330000000     0.849880000000     0.287345   
C51      C      0.587830000000     0.812570000000     0.854170000000     0.287995   
C52      C      0.589840000000     0.885860000000     0.848420000000     0.289169   
C53      C      0.882890000000     0.846520000000     0.194970000000     0.287169   
C54      C      0.935660000000     0.840920000000     0.145190000000     0.286358   
C55      C      0.881580000000     0.807000000000     0.139030000000     0.288969   
C56      C      0.879890000000     0.879710000000     0.140610000000     0.288821   
C57      C      0.586580000000     0.588330000000     0.304320000000     0.289571   
C58      C      0.536350000000     0.595360000000     0.356410000000     0.289067   
C59      C      0.591340000000     0.556770000000     0.362620000000     0.288652   
C60      C      0.593810000000     0.627540000000     0.358400000000     0.288583   
C61      C      0.644520000000     0.423930000000     0.382700000000     0.289971   
C62      C      0.695510000000     0.377460000000     0.372860000000     0.28795    
C63      C      0.643370000000     0.363400000000     0.413540000000     0.291229   
C64      C      0.634920000000     0.371410000000     0.342870000000     0.289753   
C65      C      0.686330000000     0.570490000000     0.123780000000     0.286652   
C66      C      0.635900000000     0.518990000000     0.128860000000     0.286493   
C67      C      0.631810000000     0.571080000000     0.164790000000     0.28932    
C68      C      0.631190000000     0.574790000000     0.090540000000     0.288981   
C69      C      0.535920000000     0.340410000000     0.157470000000     0.289518   
C70      C      0.586740000000     0.345130000000     0.206560000000     0.288494   
C71      C      0.592430000000     0.312760000000     0.144300000000     0.288502   
C72      C      0.591200000000     0.382920000000     0.154210000000     0.288857   
C73      C      0.830350000000     0.920390000000     0.369120000000     0.288028   
C74      C      0.776800000000     0.871220000000     0.369680000000     0.287268   
C75      C      0.832020000000     0.869690000000     0.331670000000     0.289017   
C76      C      0.830840000000     0.865000000000     0.406410000000     0.288851   
C77      C      0.435720000000     0.839210000000     0.343070000000     0.287612   
C78      C      0.384890000000     0.844390000000     0.294290000000     0.289469   
C79      C      0.384060000000     0.802340000000     0.351710000000     0.288736   
C80      C      0.374510000000     0.872180000000     0.351310000000     0.287717   
C81      C      0.603510000000     0.813480000000     0.451690000000     0.289208   
C82      C      0.612600000000     0.763210000000     0.403960000000     0.288119   
C83      C      0.571410000000     0.814340000000     0.391080000000     0.290576   
C84      C      0.642120000000     0.823030000000     0.397780000000     0.290507   
C85      C      0.380550000000     0.336680000000     0.703440000000     0.286401   
C86      C      0.431850000000     0.331680000000     0.651880000000     0.286585   
C87      C      0.378600000000     0.297150000000     0.647350000000     0.289251   
C88      C      0.376040000000     0.370020000000     0.648870000000     0.288738   
C89      C      0.606860000000     0.260550000000     0.596590000000     0.287956   
C90      C      0.611860000000     0.311030000000     0.547320000000     0.288422   
C91      C      0.568990000000     0.311060000000     0.603300000000     0.288653   
C92      C      0.640620000000     0.320370000000     0.604290000000     0.287971   
C93      C      0.108830000000     0.665250000000     0.596670000000     0.288148   
C94      C      0.108690000000     0.613890000000     0.544040000000     0.288052   
C95      C      0.144460000000     0.607460000000     0.595710000000     0.288626   
C96      C      0.070740000000     0.612400000000     0.598140000000     0.288126   
C97      C      0.139970000000     0.512740000000     0.368000000000     0.288696   
C98      C      0.189930000000     0.565630000000     0.373250000000     0.288385   
C99      C      0.135470000000     0.567970000000     0.333680000000     0.288382   
C100     C      0.134290000000     0.565570000000     0.407400000000     0.288847   
C101     C      0.363450000000     0.668630000000     0.405610000000     0.287819   
C102     C      0.358960000000     0.618720000000     0.458740000000     0.2875     
C103     C      0.325380000000     0.613120000000     0.402990000000     0.288779   
C104     C      0.398820000000     0.616560000000     0.403450000000     0.288688   
C105     C      0.329970000000     0.506500000000     0.630040000000     0.289729   
C106     C      0.277320000000     0.554050000000     0.624380000000     0.288935   
C107     C      0.332190000000     0.559380000000     0.665770000000     0.288628   
C108     C      0.334070000000     0.564830000000     0.593440000000     0.289692   
C109     C      0.145760000000     0.929010000000     0.871570000000     0.289549   
C110     C      0.194260000000     0.884650000000     0.869560000000     0.289146   
C111     C      0.139020000000     0.866710000000     0.904480000000     0.28917    
C112     C      0.132560000000     0.871910000000     0.836690000000     0.289473   
C113     C      0.278510000000     0.370140000000     0.879720000000     0.288633   
C114     C      0.330330000000     0.421320000000     0.875490000000     0.288853   
C115     C      0.335440000000     0.366490000000     0.912680000000     0.288169   
C116     C      0.332200000000     0.366490000000     0.839600000000     0.288389   
C117     C      0.354550000000     0.816560000000     0.952120000000     0.288418   
C118     C      0.359750000000     0.769140000000     0.899760000000     0.289808   
C119     C      0.326730000000     0.830280000000     0.893770000000     0.29085    
C120     C      0.396920000000     0.821880000000     0.897620000000     0.289025   
C121     C      0.379330000000     0.590310000000     0.802280000000     0.286355   
C122     C      0.431000000000     0.597420000000     0.853590000000     0.286215   
C123     C      0.376800000000     0.631340000000     0.856670000000     0.288708   
C124     C      0.376290000000     0.557930000000     0.857180000000     0.288892   
C125     C      0.862190000000     0.124920000000     0.951940000000     0.287746   
C126     C      0.853990000000     0.174580000000     0.899540000000     0.28801    
C127     C      0.893510000000     0.123470000000     0.892630000000     0.288953   
C128     C      0.820860000000     0.117120000000     0.901010000000     0.289192   
C129     C      0.605260000000     0.676250000000     0.901420000000     0.287959   
C130     C      0.607710000000     0.623900000000     0.953580000000     0.288186   
C131     C      0.567870000000     0.623400000000     0.900210000000     0.288015   
C132     C      0.642030000000     0.621820000000     0.898300000000     0.287877   
C133     C      0.856070000000     0.814770000000     0.542530000000     0.286713   
C134     C      0.858710000000     0.764200000000     0.594000000000     0.287087   
C135     C      0.894950000000     0.816090000000     0.599230000000     0.289438   
C136     C      0.821480000000     0.820510000000     0.596570000000     0.289033   
C137     C      0.932090000000     0.591880000000     0.641300000000     0.288975   
C138     C      0.880180000000     0.586540000000     0.692840000000     0.288759   
C139     C      0.877820000000     0.627810000000     0.640190000000     0.289077   
C140     C      0.876520000000     0.555920000000     0.634660000000     0.288329   
C141     C      0.825760000000     0.515100000000     0.866750000000     0.287087   
C142     C      0.775510000000     0.567930000000     0.870770000000     0.286851   
C143     C      0.829730000000     0.570240000000     0.904790000000     0.288566   
C144     C      0.830860000000     0.567230000000     0.830680000000     0.289344   
C145     C      0.931040000000     0.340820000000     0.844540000000     0.287294   
C146     C      0.881890000000     0.344140000000     0.790160000000     0.28729    
C147     C      0.877140000000     0.307400000000     0.846020000000     0.288522   
C148     C      0.875870000000     0.380510000000     0.844080000000     0.289103   
C149     C      0.860310000000     0.314850000000     0.448840000000     0.287058   
C150     C      0.864440000000     0.266840000000     0.395660000000     0.287786   
C151     C      0.829740000000     0.324950000000     0.390960000000     0.28922    
C152     C      0.902570000000     0.316780000000     0.395070000000     0.289589   
C153     C      0.823250000000     0.423550000000     0.613470000000     0.289729   
C154     C      0.773510000000     0.376100000000     0.622930000000     0.288723   
C155     C      0.827060000000     0.362740000000     0.583620000000     0.290699   
C156     C      0.834000000000     0.371160000000     0.653900000000     0.290315   
C157     C      0.274470000000     0.875090000000     0.126190000000     0.288066   
C158     C      0.327380000000     0.925990000000     0.120630000000     0.288297   
C159     C      0.331950000000     0.875240000000     0.160270000000     0.287916   
C160     C      0.325670000000     0.869240000000     0.086480000000     0.288027   
C161     C      0.933240000000     0.094410000000     0.348040000000     0.286217   
C162     C      0.881110000000     0.089340000000     0.296650000000     0.286573   
C163     C      0.878030000000     0.056270000000     0.351430000000     0.289418   
C164     C      0.880160000000     0.129530000000     0.350910000000     0.289408   
C165     C      0.077870000000     0.088490000000     0.794190000000     0.288877   
C166     C      0.028400000000     0.095210000000     0.843850000000     0.287153   
C167     C      0.089660000000     0.060670000000     0.850720000000     0.287492   
C168     C      0.080930000000     0.130870000000     0.851110000000     0.288512   
C169     C      0.111470000000     0.116380000000     0.450600000000     0.287995   
C170     C      0.109670000000     0.164580000000     0.398040000000     0.288954   
C171     C      0.142170000000     0.104310000000     0.392750000000     0.290516   
C172     C      0.070810000000     0.114630000000     0.395350000000     0.290293   
C173     C      0.185730000000     0.056300000000     0.627100000000     0.288344   
C174     C      0.135130000000     0.005680000000     0.618890000000     0.288424   
C175     C      0.127030000000     0.056840000000     0.659040000000     0.289146   
C176     C      0.135430000000     0.063560000000     0.585780000000     0.289498   
C177     C      0.831190000000     0.015310000000     0.121770000000     0.288462   
C178     C      0.778290000000     0.066500000000     0.119790000000     0.287667   
C179     C      0.831930000000     0.066130000000     0.159340000000     0.28921    
C180     C      0.834560000000     0.070750000000     0.085190000000     0.288472   
C181     C      0.609530000000     0.136520000000     0.039510000000     0.289761   
C182     C      0.611790000000     0.181030000000     0.087840000000     0.288676   
C183     C      0.576760000000     0.124490000000     0.102100000000     0.289646   
C184     C      0.643850000000     0.118600000000     0.095690000000     0.288907   
C185     C      0.275570000000     0.050930000000     0.370680000000     0.290405   
C186     C      0.321680000000     0.004570000000     0.373310000000     0.289356   
C187     C      0.338640000000     0.059650000000     0.337970000000     0.289505   
C188     C      0.331940000000     0.065830000000     0.406080000000     0.289055   
C189     C      0.390610000000     0.088580000000     0.203250000000     0.287387   
C190     C      0.442520000000     0.093330000000     0.151500000000     0.287635   
C191     C      0.385570000000     0.056120000000     0.147710000000     0.287951   
C192     C      0.389760000000     0.128760000000     0.148320000000     0.2884     
C193     C      0.351740000000     0.088510000000     0.292690000000    -0.0564051  
C194     C      0.364500000000     0.075890000000     0.282930000000     0.021876   
C195     C      0.369580000000     0.058450000000     0.292060000000    -0.0563507  
C196     C      0.361620000000     0.053460000000     0.310210000000     0.0129993  
C197     C      0.348400000000     0.065800000000     0.319670000000    -0.0736464  
C198     C      0.343790000000     0.083530000000     0.310880000000     0.0128567  
C199     C      0.371670000000     0.080360000000     0.262860000000     0.0215553  
C200     C      0.358980000000     0.088090000000     0.248730000000    -0.0560571  
C201     C      0.365250000000     0.091080000000     0.229480000000     0.012315   
C202     C      0.384370000000     0.086410000000     0.223900000000    -0.0725607  
C203     C      0.397220000000     0.079090000000     0.238100000000     0.0122994  
C204     C      0.390930000000     0.076080000000     0.257370000000    -0.0561411  
C205     C      0.496690000000     0.103700000000     0.153160000000    -0.0561384  
C206     C      0.501950000000     0.101700000000     0.133330000000     0.0215195  
C207     C      0.487660000000     0.096010000000     0.119750000000    -0.0560028  
C208     C      0.468470000000     0.092880000000     0.125740000000     0.012223   
C209     C      0.463120000000     0.095350000000     0.145470000000    -0.0724373  
C210     C      0.477480000000     0.100530000000     0.159170000000     0.0122565  
C211     C      0.521970000000     0.106490000000     0.126590000000     0.021937   
C212     C      0.531540000000     0.122930000000     0.133810000000    -0.056432   
C213     C      0.549630000000     0.128430000000     0.126280000000     0.0130113  
C214     C      0.558570000000     0.117610000000     0.111370000000    -0.0737019  
C215     C      0.549340000000     0.100800000000     0.104630000000     0.0130027  
C216     C      0.531230000000     0.095310000000     0.112140000000    -0.0565206  
C217     C      0.733870000000     0.098760000000     0.118920000000    -0.0562573  
C218     C      0.718910000000     0.085690000000     0.114330000000     0.0216587  
C219     C      0.723560000000     0.066060000000     0.112260000000    -0.0562487  
C220     C      0.742790000000     0.059710000000     0.114410000000     0.0123617  
C221     C      0.757770000000     0.072880000000     0.118560000000    -0.0727479  
C222     C      0.753060000000     0.092430000000     0.120990000000     0.0123974  
C223     C      0.698790000000     0.092770000000     0.110770000000     0.0217223  
C224     C      0.690700000000     0.107280000000     0.122640000000    -0.0562988  
C225     C      0.672520000000     0.115220000000     0.118160000000     0.0125734  
C226     C      0.662060000000     0.108840000000     0.101690000000    -0.0730207  
C227     C      0.669810000000     0.093840000000     0.090240000000     0.0126565  
C228     C      0.687960000000     0.085890000000     0.094750000000    -0.0561168  
C229     C      0.108280000000     0.087630000000     0.543940000000    -0.0566115  
C230     C      0.123220000000     0.089990000000     0.530040000000     0.0219613  
C231     C      0.142120000000     0.083810000000     0.534750000000    -0.0567454  
C232     C      0.145990000000     0.075280000000     0.552860000000     0.0131099  
C233     C      0.131090000000     0.072840000000     0.566750000000    -0.0735186  
C234     C      0.112210000000     0.079230000000     0.562190000000     0.0131081  
C235     C      0.119150000000     0.098190000000     0.510370000000     0.0215087  
C236     C      0.103030000000     0.091840000000     0.499460000000    -0.056107   
C237     C      0.100250000000     0.098150000000     0.480200000000     0.0126079  
C238     C      0.113460000000     0.111060000000     0.471510000000    -0.0727602  
C239     C      0.129150000000     0.118000000000     0.482680000000     0.01234    
C240     C      0.132000000000     0.111570000000     0.501880000000    -0.0563693  
C241     C      0.192840000000     0.096210000000     0.372700000000    -0.0563971  
C242     C      0.195910000000     0.076620000000     0.376890000000     0.021936   
C243     C      0.180570000000     0.065850000000     0.385030000000    -0.0566803  
C244     C      0.162780000000     0.074650000000     0.389500000000     0.0129368  
C245     C      0.160040000000     0.094420000000     0.386020000000    -0.0741317  
C246     C      0.175130000000     0.105010000000     0.377240000000     0.0133684  
C247     C      0.215500000000     0.067970000000     0.374040000000     0.0218258  
C248     C      0.226730000000     0.072570000000     0.357450000000    -0.0564192  
C249     C      0.246030000000     0.066340000000     0.355960000000     0.0129994  
C250     C      0.254520000000     0.055410000000     0.371060000000    -0.0731573  
C251     C      0.243030000000     0.050060000000     0.387220000000     0.0130694  
C252     C      0.223720000000     0.056260000000     0.388690000000    -0.056256   
C253     C      0.080510000000     0.065660000000     0.743830000000    -0.0567146  
C254     C      0.094650000000     0.077120000000     0.734550000000     0.0218123  
C255     C      0.102460000000     0.092940000000     0.744690000000    -0.0564599  
C256     C      0.096730000000     0.096850000000     0.763950000000     0.01303    
C257     C      0.082940000000     0.085120000000     0.773400000000    -0.0732503  
C258     C      0.074650000000     0.069670000000     0.763030000000     0.0127539  
C259     C      0.102020000000     0.071950000000     0.714790000000     0.0217365  
C260     C      0.107010000000     0.052780000000     0.710530000000    -0.0564952  
C261     C      0.114960000000     0.047920000000     0.692370000000     0.0129537  
C262     C      0.117960000000     0.062090000000     0.677960000000    -0.0733239  
C263     C      0.112620000000     0.081220000000     0.682030000000     0.0130088  
C264     C      0.104840000000     0.086130000000     0.700330000000    -0.056514   
C265     C      0.863620000000     0.084870000000     0.200690000000    -0.0563512  
C266     C      0.853310000000     0.078550000000     0.217300000000     0.0217457  
C267     C      0.835770000000     0.068440000000     0.214620000000    -0.0564085  
C268     C      0.828750000000     0.064650000000     0.195810000000     0.0125626  
C269     C      0.839100000000     0.070870000000     0.179210000000    -0.0728791  
C270     C      0.856570000000     0.081090000000     0.181830000000     0.0127877  
C271     C      0.860780000000     0.082260000000     0.237400000000     0.0215297  
C272     C      0.880650000000     0.079990000000     0.241840000000    -0.0559382  
C273     C      0.887390000000     0.082550000000     0.261030000000     0.0121589  
C274     C      0.874390000000     0.087430000000     0.276140000000    -0.0722491  
C275     C      0.854610000000     0.090080000000     0.271600000000     0.0122374  
C276     C      0.847900000000     0.087550000000     0.252470000000    -0.0563303  
C277     C      0.015920000000     0.114680000000     0.391270000000    -0.0568355  
C278     C      0.012780000000     0.103520000000     0.374380000000     0.0223156  
C279     C      0.028960000000     0.095850000000     0.364420000000    -0.0565913  
C280     C      0.047860000000     0.099260000000     0.371290000000     0.0130621  
C281     C      0.050930000000     0.110460000000     0.388190000000    -0.0731557  
C282     C      0.034750000000     0.118110000000     0.398090000000     0.0131596  
C283     C      0.992640000000     0.100070000000     0.367270000000     0.0210721  
C284     C      0.977660000000     0.096140000000     0.380720000000    -0.0562079  
C285     C      0.958480000000     0.094040000000     0.374360000000     0.0120763  
C286     C      0.953790000000     0.095770000000     0.354390000000    -0.0718376  
C287     C      0.968790000000     0.099220000000     0.340820000000     0.0118156  
C288     C      0.988050000000     0.101330000000     0.347210000000    -0.0556363  
C289     C      0.331590000000     0.979320000000     0.131670000000    -0.0558923  
C290     C      0.350880000000     0.983170000000     0.125970000000     0.0210814  
C291     C      0.361760000000     0.968430000000     0.117040000000    -0.0563226  
C292     C      0.353830000000     0.950050000000     0.114640000000     0.012308   
C293     C      0.334850000000     0.945980000000     0.121100000000    -0.0725892  
C294     C      0.323660000000     0.960910000000     0.129270000000     0.0124383  
C295     C      0.360030000000     0.002090000000     0.130410000000     0.0220809  
C296     C      0.349650000000     0.019380000000     0.128030000000    -0.0562061  
C297     C      0.358050000000     0.037020000000     0.133260000000     0.0124107  
C298     C      0.376980000000     0.037690000000     0.141070000000    -0.0726357  
C299     C      0.387470000000     0.020440000000     0.143150000000     0.0122137  
C300     C      0.379100000000     0.002860000000     0.137880000000    -0.0556146  
C301     C      0.872050000000     0.172340000000     0.384300000000    -0.0562442  
C302     C      0.868820000000     0.187220000000     0.370650000000     0.0220547  
C303     C      0.867910000000     0.182530000000     0.350600000000    -0.0566316  
C304     C      0.871130000000     0.163680000000     0.344290000000     0.0137023  
C305     C      0.874970000000     0.148990000000     0.357880000000    -0.0740768  
C306     C      0.874970000000     0.153390000000     0.377970000000     0.0133405  
C307     C      0.867290000000     0.207660000000     0.377110000000     0.0217551  
C308     C      0.858030000000     0.212600000000     0.394820000000    -0.0560137  
C309     C      0.857110000000     0.231830000000     0.400930000000     0.0127559  
C310     C      0.865240000000     0.246510000000     0.389350000000    -0.0726637  
C311     C      0.874360000000     0.241610000000     0.371630000000     0.012781   
C312     C      0.875490000000     0.222430000000     0.365650000000    -0.0561376  
C313     C      0.841420000000     0.313930000000     0.500990000000    -0.056447   
C314     C      0.849750000000     0.330740000000     0.508830000000     0.021525   
C315     C      0.862480000000     0.341650000000     0.497140000000    -0.0562425  
C316     C      0.866270000000     0.336230000000     0.477770000000     0.0124726  
C317     C      0.857510000000     0.319720000000     0.469760000000    -0.0727229  
C318     C      0.845320000000     0.308430000000     0.481670000000     0.0122449  
C319     C      0.844250000000     0.337570000000     0.528690000000     0.0220551  
C320     C      0.824600000000     0.337770000000     0.534400000000    -0.0567771  
C321     C      0.819100000000     0.345590000000     0.552430000000     0.0134501  
C322     C      0.833150000000     0.353240000000     0.565220000000    -0.0741675  
C323     C      0.852880000000     0.352500000000     0.559810000000     0.0134709  
C324     C      0.858370000000     0.344830000000     0.541660000000    -0.0569197  
C325     C      0.852670000000     0.341950000000     0.743150000000    -0.0564184  
C326     C      0.865260000000     0.351020000000     0.729810000000     0.0216281  
C327     C      0.883840000000     0.356760000000     0.736180000000    -0.0565524  
C328     C      0.889510000000     0.353930000000     0.755660000000     0.0124101  
C329     C      0.876630000000     0.345510000000     0.769180000000    -0.0727497  
C330     C      0.858260000000     0.339310000000     0.762670000000     0.0126443  
C331     C      0.858520000000     0.355580000000     0.709680000000     0.0219733  
C332     C      0.848450000000     0.341840000000     0.698440000000    -0.0568446  
C333     C      0.840950000000     0.346690000000     0.680020000000     0.0133144  
C334     C      0.843180000000     0.365460000000     0.672620000000    -0.0738301  
C335     C      0.853570000000     0.379070000000     0.683700000000     0.0134784  
C336     C      0.861250000000     0.374160000000     0.701990000000    -0.0567792  
C337     C      0.826410000000     0.461640000000     0.855150000000    -0.0558832  
C338     C      0.845300000000     0.456450000000     0.861190000000     0.021558   
C339     C      0.857120000000     0.470480000000     0.870080000000    -0.0563565  
C340     C      0.850550000000     0.489370000000     0.872210000000     0.0124573  
C341     C      0.831940000000     0.494720000000     0.865620000000    -0.0723387  
C342     C      0.819790000000     0.480590000000     0.857370000000     0.0122034  
C343     C      0.853080000000     0.436800000000     0.857440000000     0.0217674  
C344     C      0.841400000000     0.420340000000     0.859940000000    -0.0562102  
C345     C      0.848830000000     0.401970000000     0.855920000000     0.0126637  
C346     C      0.868080000000     0.399720000000     0.849280000000    -0.0735952  
C347     C      0.879770000000     0.416150000000     0.846940000000     0.0127503  
C348     C      0.872370000000     0.434440000000     0.850940000000    -0.0564742  
C349     C      0.850580000000     0.571400000000     0.736900000000    -0.0564712  
C350     C      0.860360000000     0.580590000000     0.752410000000     0.0219179  
C351     C      0.877140000000     0.591480000000     0.748170000000    -0.0562166  
C352     C      0.883800000000     0.593270000000     0.728850000000     0.013041   
C353     C      0.873730000000     0.584340000000     0.713390000000    -0.073393   
C354     C      0.857100000000     0.573350000000     0.717640000000     0.0130216  
C355     C      0.852970000000     0.578670000000     0.772840000000     0.0218324  
C356     C      0.832810000000     0.578130000000     0.776470000000    -0.0564871  
C357     C      0.825710000000     0.574810000000     0.795330000000     0.0134415  
C358     C      0.838560000000     0.572240000000     0.811110000000    -0.0737856  
C359     C      0.858700000000     0.573570000000     0.807750000000     0.0129778  
C360     C      0.865840000000     0.576660000000     0.788780000000    -0.056078   
C361     C      0.872020000000     0.503260000000     0.621320000000    -0.0562084  
C362     C      0.851970000000     0.501500000000     0.617600000000     0.0216752  
C363     C      0.840280000000     0.518120000000     0.618160000000    -0.0564688  
C364     C      0.848380000000     0.536000000000     0.622950000000     0.0127044  
C365     C      0.868300000000     0.537570000000     0.627420000000    -0.0727472  
C366     C      0.880090000000     0.521080000000     0.626210000000     0.012593   
C367     C      0.843230000000     0.482180000000     0.614510000000     0.0218126  
C368     C      0.852760000000     0.468360000000     0.602900000000    -0.0566534  
C369     C      0.845770000000     0.449490000000     0.601900000000     0.0128419  
C370     C      0.829140000000     0.444020000000     0.612540000000    -0.0729751  
C371     C      0.819100000000     0.458030000000     0.623430000000     0.0130835  
C372     C      0.826060000000     0.476930000000     0.624380000000    -0.0562089  
C373     C      0.867590000000     0.710300000000     0.593580000000    -0.0558874  
C374     C      0.862250000000     0.705150000000     0.612800000000     0.0216014  
C375     C      0.854930000000     0.719460000000     0.625370000000    -0.0563635  
C376     C      0.853540000000     0.738550000000     0.619120000000     0.0124334  
C377     C      0.859330000000     0.743780000000     0.600090000000    -0.0723874  
C378     C      0.866120000000     0.729430000000     0.587270000000     0.0122079  
C379     C      0.865140000000     0.685170000000     0.620050000000     0.0217561  
C380     C      0.861150000000     0.669190000000     0.608030000000    -0.0563304  
C381     C      0.864780000000     0.650470000000     0.614710000000     0.0127899  
C382     C      0.872490000000     0.647380000000     0.633540000000    -0.0731126  
C383     C      0.876110000000     0.663320000000     0.645690000000     0.0126039  
C384     C      0.872510000000     0.681980000000     0.639020000000    -0.0563295  
C385     C      0.680740000000     0.587990000000     0.878500000000    -0.0561322  
C386     C      0.697900000000     0.598320000000     0.882530000000     0.0216504  
C387     C      0.696390000000     0.616650000000     0.891170000000    -0.0563125  
C388     C      0.678230000000     0.624370000000     0.895890000000     0.0123902  
C389     C      0.661090000000     0.613970000000     0.892100000000    -0.0725386  
C390     C      0.662510000000     0.595760000000     0.883210000000     0.0124566  
C391     C      0.717390000000     0.590000000000     0.878210000000     0.0216025  
C392     C      0.721520000000     0.570570000000     0.882360000000    -0.0558595  
C393     C      0.740300000000     0.563210000000     0.879590000000     0.0119896  
C394     C      0.755310000000     0.575150000000     0.872620000000    -0.0720656  
C395     C      0.751030000000     0.594400000000     0.867970000000     0.0122357  
C396     C      0.732300000000     0.601730000000     0.870700000000    -0.0564064  
C397     C      0.867690000000     0.093090000000     0.996560000000    -0.0565655  
C398     C      0.857920000000     0.103840000000     0.010990000000     0.0216775  
C399     C      0.851300000000     0.122450000000     0.006300000000    -0.056051   
C400     C      0.853490000000     0.129710000000     0.987300000000     0.0126294  
C401     C      0.862350000000     0.118520000000     0.972630000000    -0.0726608  
C402     C      0.869880000000     0.100350000000     0.977590000000     0.0124269  
C403     C      0.853300000000     0.095100000000     0.030330000000     0.0218404  
C404     C      0.846530000000     0.076020000000     0.031340000000    -0.0564254  
C405     C      0.840820000000     0.068050000000     0.049220000000     0.0127736  
C406     C      0.841770000000     0.078950000000     0.066540000000    -0.0734833  
C407     C      0.848960000000     0.097880000000     0.065670000000     0.0128549  
C408     C      0.854620000000     0.105910000000     0.047720000000    -0.0565814  
C409     C      0.849270000000     0.217960000000     0.866280000000    -0.056403   
C410     C      0.857510000000     0.232620000000     0.877820000000     0.0216419  
C411     C      0.863200000000     0.228330000000     0.897140000000    -0.0561581  
C412     C      0.861440000000     0.209590000000     0.904460000000     0.0126418  
C413     C      0.853910000000     0.194790000000     0.892640000000    -0.0721638  
C414     C      0.847470000000     0.199250000000     0.873610000000     0.01219    
C415     C      0.861300000000     0.251970000000     0.869330000000     0.0216111  
C416     C      0.869140000000     0.253660000000     0.850360000000    -0.0563249  
C417     C      0.873920000000     0.271690000000     0.842700000000     0.012551   
C418     C      0.870930000000     0.288480000000     0.853790000000    -0.0726206  
C419     C      0.862680000000     0.286880000000     0.872590000000     0.0125637  
C420     C      0.857980000000     0.268800000000     0.880310000000    -0.0563275  
C421     C      0.980610000000     0.090860000000     0.871180000000    -0.0559272  
C422     C      0.968640000000     0.103440000000     0.860470000000     0.0213028  
C423     C      0.976090000000     0.112300000000     0.843540000000    -0.0562041  
C424     C      0.995320000000     0.109070000000     0.837730000000     0.0116256  
C425     C      0.007550000000     0.097110000000     0.848890000000    -0.0718073  
C426     C      0.999930000000     0.087820000000     0.865510000000     0.0118696  
C427     C      0.948890000000     0.108300000000     0.867690000000     0.0220328  
C428     C      0.935940000000     0.093830000000     0.873810000000    -0.0567966  
C429     C      0.917680000000     0.098680000000     0.881500000000     0.0132423  
C430     C      0.912240000000     0.118090000000     0.883500000000    -0.073528   
C431     C      0.925150000000     0.132520000000     0.877210000000     0.0132926  
C432     C      0.943220000000     0.127670000000     0.869270000000    -0.0568277  
C433     C      0.513090000000     0.618200000000     0.897930000000    -0.0562379  
C434     C      0.510340000000     0.609120000000     0.879710000000     0.0216587  
C435     C      0.526780000000     0.604360000000     0.868410000000    -0.0560802  
C436     C      0.545540000000     0.608700000000     0.875160000000     0.012397   
C437     C      0.548200000000     0.617930000000     0.893310000000    -0.0725965  
C438     C      0.531770000000     0.622540000000     0.904640000000     0.0123522  
C439     C      0.490310000000     0.604970000000     0.872550000000     0.0215552  
C440     C      0.475960000000     0.598370000000     0.885620000000    -0.0562918  
C441     C      0.456820000000     0.595650000000     0.879320000000     0.0121886  
C442     C      0.451550000000     0.599390000000     0.859780000000    -0.072002   
C443     C      0.465960000000     0.605490000000     0.846540000000     0.0120165  
C444     C      0.485160000000     0.608260000000     0.852860000000    -0.055896   
C445     C      0.362060000000     0.838320000000     0.002510000000    -0.0560906  
C446     C      0.343970000000     0.834790000000     0.011430000000     0.0215427  
C447     C      0.329920000000     0.824060000000     0.001170000000    -0.0563951  
C448     C      0.333630000000     0.817530000000     0.982150000000     0.0123937  
C449     C      0.351420000000     0.821720000000     0.972930000000    -0.07275    
C450     C      0.365730000000     0.831920000000     0.983420000000     0.0124857  
C451     C      0.339330000000     0.843190000000     0.030890000000     0.0217804  
C452     C      0.352820000000     0.842460000000     0.046380000000    -0.0564826  
C453     C      0.348400000000     0.850810000000     0.064540000000     0.0127055  
C454     C      0.330520000000     0.860230000000     0.067440000000    -0.0728767  
C455     C      0.317090000000     0.860970000000     0.051910000000     0.0125776  
C456     C      0.321410000000     0.852490000000     0.033880000000    -0.0565778  
C457     C      0.370610000000     0.724320000000     0.870250000000    -0.0562363  
C458     C      0.363000000000     0.709610000000     0.882200000000     0.0218894  
C459     C      0.354220000000     0.714720000000     0.900110000000    -0.0560528  
C460     C      0.353140000000     0.734050000000     0.905910000000     0.0128232  
C461     C      0.360680000000     0.748660000000     0.893840000000    -0.0732657  
C462     C      0.369350000000     0.743580000000     0.875930000000     0.0130441  
C463     C      0.364680000000     0.689080000000     0.876010000000     0.0218392  
C464     C      0.363170000000     0.684050000000     0.856080000000    -0.0563009  
C465     C      0.366600000000     0.665180000000     0.849920000000     0.0132207  
C466     C      0.371290000000     0.650770000000     0.863570000000    -0.0734207  
C467     C      0.371870000000     0.655480000000     0.883590000000     0.0128486  
C468     C      0.368710000000     0.674460000000     0.889750000000    -0.056      
C469     C      0.359560000000     0.465580000000     0.862280000000    -0.0563689  
C470     C      0.349140000000     0.480400000000     0.871650000000     0.0218103  
C471     C      0.332250000000     0.475600000000     0.882270000000    -0.0561034  
C472     C      0.326010000000     0.456420000000     0.883530000000     0.0127218  
C473     C      0.336600000000     0.441670000000     0.874280000000    -0.0730002  
C474     C      0.353430000000     0.446480000000     0.863670000000     0.0127912  
C475     C      0.355890000000     0.500730000000     0.869940000000     0.0218309  
C476     C      0.375920000000     0.504960000000     0.869760000000    -0.0564789  
C477     C      0.382460000000     0.523660000000     0.866180000000     0.0132302  
C478     C      0.369150000000     0.538680000000     0.862990000000    -0.0734093  
C479     C      0.349110000000     0.534750000000     0.864140000000     0.012767   
C480     C      0.342540000000     0.515930000000     0.867490000000    -0.0560438  
C481     C      0.139640000000     0.980460000000     0.854120000000    -0.0559734  
C482     C      0.126850000000     0.987980000000     0.868290000000     0.0211666  
C483     C      0.121670000000     0.976410000000     0.884380000000    -0.0562503  
C484     C      0.128450000000     0.957490000000     0.885840000000     0.0127076  
C485     C      0.140520000000     0.949690000000     0.871210000000    -0.0726805  
C486     C      0.146380000000     0.961500000000     0.855550000000     0.0126089  
C487     C      0.117820000000     0.007250000000     0.865500000000     0.0220591  
C488     C      0.128810000000     0.022940000000     0.858590000000    -0.0563658  
C489     C      0.119810000000     0.040570000000     0.854450000000     0.0122398  
C490     C      0.099630000000     0.042800000000     0.856980000000    -0.072404   
C491     C      0.088760000000     0.027290000000     0.864420000000     0.0124214  
C492     C      0.097750000000     0.009740000000     0.868670000000    -0.0555069  
C493     C      0.243620000000     0.863970000000     0.856770000000    -0.0562385  
C494     C      0.254310000000     0.867830000000     0.873910000000     0.0215971  
C495     C      0.245620000000     0.878970000000     0.888760000000    -0.0560242  
C496     C      0.226370000000     0.885240000000     0.886930000000     0.012752   
C497     C      0.215380000000     0.880520000000     0.870230000000    -0.0724909  
C498     C      0.224370000000     0.870260000000     0.854940000000     0.0127614  
C499     C      0.273750000000     0.858940000000     0.877070000000     0.0219234  
C500     C      0.276930000000     0.839550000000     0.872050000000    -0.0564017  
C501     C      0.294420000000     0.830450000000     0.876870000000     0.0133624  
C502     C      0.309160000000     0.840530000000     0.886790000000    -0.0740248  
C503     C      0.306340000000     0.860130000000     0.891110000000     0.0129893  
C504     C      0.288800000000     0.869230000000     0.886340000000    -0.0567217  
C505     C      0.336090000000     0.564050000000     0.720900000000    -0.0563863  
C506     C      0.352930000000     0.575340000000     0.723120000000     0.0217509  
C507     C      0.362880000000     0.581540000000     0.706230000000    -0.0561746  
C508     C      0.356080000000     0.576570000000     0.687540000000     0.0124893  
C509     C      0.339270000000     0.565210000000     0.685390000000    -0.0722779  
C510     C      0.329350000000     0.559050000000     0.702280000000     0.0125742  
C511     C      0.360040000000     0.580380000000     0.743060000000     0.0214172  
C512     C      0.346750000000     0.585570000000     0.757820000000    -0.0562264  
C513     C      0.353130000000     0.589120000000     0.776910000000     0.012099   
C514     C      0.372950000000     0.587590000000     0.781740000000    -0.0718941  
C515     C      0.386360000000     0.582900000000     0.766910000000     0.0118507  
C516     C      0.379960000000     0.579340000000     0.747750000000    -0.0557753  
C517     C      0.366270000000     0.590150000000     0.505360000000    -0.0562112  
C518     C      0.352960000000     0.598900000000     0.518250000000     0.0216105  
C519     C      0.342500000000     0.615130000000     0.511720000000    -0.0558407  
C520     C      0.344840000000     0.621990000000     0.492550000000     0.0122704  
C521     C      0.357540000000     0.612670000000     0.479490000000    -0.0725326  
C522     C      0.368440000000     0.596870000000     0.486190000000     0.0126662  
C523     C      0.349230000000     0.590400000000     0.537960000000     0.0217507  
C524     C      0.348700000000     0.570280000000     0.540290000000    -0.0562563  
C525     C      0.344350000000     0.562080000000     0.558450000000     0.0128062  
C526     C      0.340260000000     0.573770000000     0.574740000000    -0.0733804  
C527     C      0.341090000000     0.593890000000     0.572600000000     0.0124016  
C528     C      0.345560000000     0.602120000000     0.554390000000    -0.0561434  
C529     C      0.283970000000     0.578950000000     0.390960000000    -0.0560486  
C530     C      0.269050000000     0.591910000000     0.385820000000     0.0218807  
C531     C      0.273360000000     0.611710000000     0.385130000000    -0.0565927  
C532     C      0.291770000000     0.618450000000     0.390330000000     0.0133699  
C533     C      0.306460000000     0.605580000000     0.396080000000    -0.0734554  
C534     C      0.302540000000     0.585720000000     0.395950000000     0.012738   
C535     C      0.248830000000     0.585080000000     0.382130000000     0.0217244  
C536     C      0.245180000000     0.567690000000     0.372180000000    -0.055989   
C537     C      0.226050000000     0.561330000000     0.369140000000     0.0126483  
C538     C      0.210210000000     0.572290000000     0.375900000000    -0.0729728  
C539     C      0.213870000000     0.589680000000     0.385740000000     0.0126713  
C540     C      0.232900000000     0.595940000000     0.388910000000    -0.0562999  
C541     C      0.114510000000     0.597620000000     0.447780000000    -0.0564361  
C542     C      0.118080000000     0.586360000000     0.464560000000     0.0216983  
C543     C      0.126170000000     0.567900000000     0.462190000000    -0.0563986  
C544     C      0.130940000000     0.561010000000     0.443580000000     0.0126187  
C545     C      0.127780000000     0.572410000000     0.426860000000    -0.073163   
C546     C      0.119300000000     0.590700000000     0.429120000000     0.0128183  
C547     C      0.114140000000     0.593980000000     0.484540000000     0.0216052  
C548     C      0.118820000000     0.613120000000     0.489410000000    -0.0560655  
C549     C      0.116590000000     0.619780000000     0.508640000000     0.012489   
C550     C      0.109700000000     0.607430000000     0.523400000000    -0.0722618  
C551     C      0.104470000000     0.588490000000     0.518420000000     0.0124131  
C552     C      0.106620000000     0.581850000000     0.499210000000    -0.0565644  
C553     C      0.977120000000     0.606490000000     0.613230000000    -0.056236   
C554     C      0.992010000000     0.596950000000     0.623530000000     0.021501   
C555     C      0.986990000000     0.585680000000     0.639920000000    -0.0560326  
C556     C      0.967520000000     0.583980000000     0.645810000000     0.0128086  
C557     C      0.952710000000     0.593420000000     0.635320000000    -0.0732048  
C558     C      0.957730000000     0.604650000000     0.618980000000     0.0128734  
C559     C      0.012620000000     0.599130000000     0.617170000000     0.02224    
C560     C      0.017190000000     0.600280000000     0.597100000000    -0.0567179  
C561     C      0.036160000000     0.604170000000     0.591000000000     0.0134898  
C562     C      0.051120000000     0.606690000000     0.604790000000    -0.0735589  
C563     C      0.046850000000     0.604640000000     0.624820000000     0.0129158  
C564     C      0.027750000000     0.601000000000     0.630970000000    -0.0561344  
C565     C      0.183600000000     0.579500000000     0.622720000000    -0.0566614  
C566     C      0.199250000000     0.580820000000     0.609510000000     0.0218292  
C567     C      0.196690000000     0.590850000000     0.591830000000    -0.0568108  
C568     C      0.178900000000     0.599550000000     0.587470000000     0.0131352  
C569     C      0.163190000000     0.598180000000     0.600590000000    -0.0734572  
C570     C      0.165640000000     0.587950000000     0.618210000000     0.0131113  
C571     C      0.218440000000     0.572290000000     0.614200000000     0.0217415  
C572     C      0.227540000000     0.576220000000     0.632210000000    -0.0565762  
C573     C      0.246540000000     0.569860000000     0.635760000000     0.0132072  
C574     C      0.256650000000     0.559240000000     0.621470000000    -0.0735202  
C575     C      0.247210000000     0.554610000000     0.603810000000     0.0128923  
C576     C      0.228340000000     0.561180000000     0.600170000000    -0.0568581  
C577     C      0.727100000000     0.349950000000     0.636440000000    -0.056399   
C578     C      0.713990000000     0.357030000000     0.622330000000     0.0216989  
C579     C      0.720170000000     0.371790000000     0.609660000000    -0.0560683  
C580     C      0.739310000000     0.378620000000     0.610420000000     0.0127774  
C581     C      0.752670000000     0.370810000000     0.623850000000    -0.0725938  
C582     C      0.746230000000     0.356750000000     0.637180000000     0.0125323  
C583     C      0.694570000000     0.347930000000     0.619700000000     0.0217032  
C584     C      0.692760000000     0.327770000000     0.620350000000    -0.0561853  
C585     C      0.675040000000     0.318910000000     0.615990000000     0.012701   
C586     C      0.658700000000     0.329980000000     0.610880000000    -0.0728741  
C587     C      0.660260000000     0.350170000000     0.610920000000     0.0123339  
C588     C      0.678040000000     0.359050000000     0.615240000000    -0.0563913  
C589     C      0.348680000000     0.336830000000     0.748690000000    -0.0563426  
C590     C      0.360950000000     0.345290000000     0.762750000000     0.0215387  
C591     C      0.380160000000     0.350000000000     0.757390000000    -0.0559284  
C592     C      0.386730000000     0.346820000000     0.738230000000     0.0119871  
C593     C      0.374230000000     0.338890000000     0.724060000000    -0.0721222  
C594     C      0.355230000000     0.333690000000     0.729570000000     0.0121937  
C595     C      0.353420000000     0.349930000000     0.782640000000     0.0217155  
C596     C      0.334640000000     0.357670000000     0.784910000000    -0.0562777  
C597     C      0.327660000000     0.362700000000     0.803440000000     0.0124292  
C598     C      0.339300000000     0.360130000000     0.820180000000    -0.0728733  
C599     C      0.357990000000     0.352140000000     0.818000000000     0.0126748  
C600     C      0.364990000000     0.347120000000     0.799420000000    -0.0562981  
C601     C      0.476700000000     0.332380000000     0.619730000000    -0.0562704  
C602     C      0.491240000000     0.325840000000     0.632600000000     0.0215169  
C603     C      0.486260000000     0.322050000000     0.652240000000    -0.0558084  
C604     C      0.467030000000     0.324260000000     0.658690000000     0.011948   
C605     C      0.452430000000     0.330280000000     0.645610000000    -0.0718531  
C606     C      0.457530000000     0.334530000000     0.626140000000     0.0121948  
C607     C      0.511310000000     0.322300000000     0.625240000000     0.0218069  
C608     C      0.514120000000     0.313650000000     0.606820000000    -0.0565     
C609     C      0.532840000000     0.310190000000     0.599730000000     0.0127759  
C610     C      0.549250000000     0.315240000000     0.610880000000    -0.0730968  
C611     C      0.546530000000     0.323890000000     0.629320000000     0.0126108  
C612     C      0.527730000000     0.327370000000     0.636450000000    -0.0562561  
C613     C      0.342040000000     0.412420000000     0.642010000000    -0.0559806  
C614     C      0.355080000000     0.427030000000     0.636300000000     0.0218843  
C615     C      0.374750000000     0.422190000000     0.633300000000    -0.0563376  
C616     C      0.381400000000     0.403530000000     0.636900000000     0.0133908  
C617     C      0.368490000000     0.389150000000     0.643240000000    -0.073609   
C618     C      0.348660000000     0.393630000000     0.645320000000     0.0128708  
C619     C      0.348510000000     0.447400000000     0.634350000000     0.0219376  
C620     C      0.329930000000     0.451940000000     0.626940000000    -0.0561606  
C621     C      0.323810000000     0.471130000000     0.625580000000     0.0130587  
C622     C      0.336210000000     0.486170000000     0.631410000000    -0.0733563  
C623     C      0.354760000000     0.481670000000     0.638710000000     0.0132145  
C624     C      0.360780000000     0.462550000000     0.640300000000    -0.0563524  
C625     C      0.359900000000     0.838780000000     0.245100000000    -0.0564641  
C626     C      0.365700000000     0.855670000000     0.235380000000     0.0216941  
C627     C      0.378690000000     0.868290000000     0.244800000000    -0.0567075  
C628     C      0.385390000000     0.864330000000     0.263720000000     0.0127555  
C629     C      0.379060000000     0.847770000000     0.273700000000    -0.0734643  
C630     C      0.366430000000     0.834920000000     0.264120000000     0.0131239  
C631     C      0.357500000000     0.860620000000     0.215910000000     0.0216991  
C632     C      0.356440000000     0.846800000000     0.200870000000    -0.0564843  
C633     C      0.348320000000     0.851540000000     0.182670000000     0.012763   
C634     C      0.340860000000     0.870100000000     0.179300000000    -0.0728752  
C635     C      0.341910000000     0.883870000000     0.194370000000     0.012655   
C636     C      0.350220000000     0.879210000000     0.212430000000    -0.0566433  
C637     C      0.488750000000     0.824470000000     0.341530000000    -0.0565658  
C638     C      0.495910000000     0.832760000000     0.358890000000     0.0215729  
C639     C      0.483450000000     0.844220000000     0.370310000000    -0.0562688  
C640     C      0.463990000000     0.846720000000     0.364900000000     0.0126763  
C641     C      0.456680000000     0.837980000000     0.347830000000    -0.0727522  
C642     C      0.469340000000     0.827160000000     0.335980000000     0.0124838  
C643     C      0.515890000000     0.828400000000     0.365810000000     0.0220652  
C644     C      0.522540000000     0.809270000000     0.366120000000    -0.0568516  
C645     C      0.540710000000     0.804790000000     0.374060000000     0.0136424  
C646     C      0.552720000000     0.819370000000     0.381660000000    -0.0743512  
C647     C      0.546350000000     0.838590000000     0.380820000000     0.0135301  
C648     C      0.528020000000     0.843040000000     0.373100000000    -0.0569581  
C649     C      0.362910000000     0.711670000000     0.371690000000    -0.0563773  
C650     C      0.369090000000     0.726640000000     0.384090000000     0.0215925  
C651     C      0.372520000000     0.722550000000     0.404000000000    -0.0558869  
C652     C      0.370360000000     0.703770000000     0.411190000000     0.0123032  
C653     C      0.364750000000     0.688740000000     0.398580000000    -0.0725276  
C654     C      0.360820000000     0.692960000000     0.378830000000     0.0125112  
C655     C      0.372650000000     0.746190000000     0.375950000000     0.0217438  
C656     C      0.381720000000     0.748260000000     0.357590000000    -0.0564749  
C657     C      0.385200000000     0.766480000000     0.349740000000     0.012736   
C658     C      0.379770000000     0.783140000000     0.360060000000    -0.0732745  
C659     C      0.370710000000     0.781170000000     0.378440000000     0.0125891  
C660     C      0.367200000000     0.762860000000     0.386320000000    -0.056167   
C661     C      0.343530000000     0.956230000000     0.386390000000    -0.0565912  
C662     C      0.338310000000     0.944990000000     0.370080000000     0.0218307  
C663     C      0.326020000000     0.953020000000     0.355750000000    -0.0563519  
C664     C      0.319910000000     0.972170000000     0.357220000000     0.012918   
C665     C      0.325940000000     0.983680000000     0.373040000000    -0.0730168  
C666     C      0.337400000000     0.975370000000     0.387870000000     0.0128294  
C667     C      0.346980000000     0.925590000000     0.367140000000     0.0215833  
C668     C      0.366920000000     0.922640000000     0.370660000000    -0.0561362  
C669     C      0.375680000000     0.905070000000     0.366110000000     0.0126507  
C670     C      0.364700000000     0.889980000000     0.357980000000    -0.0726234  
C671     C      0.344610000000     0.892620000000     0.355130000000     0.0122712  
C672     C      0.335840000000     0.910280000000     0.359600000000    -0.0564585  
C673     C      0.831850000000     0.974730000000     0.374300000000    -0.0564128  
C674     C      0.850150000000     0.979120000000     0.366140000000     0.0223464  
C675     C      0.861820000000     0.963930000000     0.359170000000    -0.056485   
C676     C      0.855450000000     0.944890000000     0.360410000000     0.012933   
C677     C      0.837120000000     0.940560000000     0.368360000000    -0.0730657  
C678     C      0.825360000000     0.955650000000     0.375290000000     0.0130453  
C679     C      0.856940000000     0.999420000000     0.364310000000     0.0202507  
C680     C      0.843830000000     0.014340000000     0.359670000000    -0.0549461  
C681     C      0.850560000000     0.033070000000     0.356330000000     0.0127387  
C682     C      0.870550000000     0.037200000000     0.357280000000    -0.0736125  
C683     C      0.883570000000     0.022520000000     0.362570000000     0.0129704  
C684     C      0.876830000000     0.003910000000     0.366240000000    -0.0546252  
C685     C      0.730380000000     0.841940000000     0.367420000000    -0.0563611  
C686     C      0.716990000000     0.854410000000     0.376430000000     0.0215559  
C687     C      0.723130000000     0.872910000000     0.382040000000    -0.0565414  
C688     C      0.742430000000     0.878630000000     0.379210000000     0.0125376  
C689     C      0.756010000000     0.865870000000     0.370930000000    -0.0729341  
C690     C      0.749730000000     0.847580000000     0.364780000000     0.0126678  
C691     C      0.697110000000     0.847610000000     0.381240000000     0.0220961  
C692     C      0.685930000000     0.837470000000     0.367400000000    -0.0569745  
C693     C      0.667720000000     0.829960000000     0.372540000000     0.0134914  
C694     C      0.660550000000     0.832220000000     0.391700000000    -0.0742499  
C695     C      0.671590000000     0.842660000000     0.405400000000     0.0137447  
C696     C      0.689620000000     0.850360000000     0.400200000000    -0.0569788  
C697     C      0.839250000000     0.861160000000     0.461020000000    -0.0565774  
C698     C      0.845570000000     0.842020000000     0.463120000000     0.0218614  
C699     C      0.847430000000     0.830500000000     0.446250000000    -0.0563692  
C700     C      0.842960000000     0.837980000000     0.427710000000     0.0127982  
C701     C      0.836480000000     0.857090000000     0.425720000000    -0.073803   
C702     C      0.834790000000     0.868600000000     0.442580000000     0.0128978  
C703     C      0.849720000000     0.834190000000     0.482970000000     0.0215606  
C704     C      0.859180000000     0.845670000000     0.497020000000    -0.0563968  
C705     C      0.861580000000     0.839140000000     0.516210000000     0.0124914  
C706     C      0.854680000000     0.820910000000     0.521820000000    -0.0724105  
C707     C      0.845860000000     0.809080000000     0.507650000000     0.0121699  
C708     C      0.843380000000     0.815670000000     0.488400000000    -0.0559559  
C709     C      0.625530000000     0.228790000000     0.110790000000    -0.0562825  
C710     C      0.609230000000     0.240220000000     0.106300000000     0.021659   
C711     C      0.594560000000     0.232480000000     0.094260000000    -0.0560181  
C712     C      0.595740000000     0.213450000000     0.087620000000     0.0124216  
C713     C      0.611630000000     0.201780000000     0.092850000000    -0.0722648  
C714     C      0.626730000000     0.209790000000     0.104120000000     0.012555   
C715     C      0.606770000000     0.259550000000     0.115380000000     0.0216807  
C716     C      0.611140000000     0.262290000000     0.135320000000    -0.0561247  
C717     C      0.607100000000     0.279810000000     0.144510000000     0.0126813  
C718     C      0.598630000000     0.295050000000     0.133960000000    -0.0727429  
C719     C      0.594930000000     0.292610000000     0.113840000000     0.0122692  
C720     C      0.598900000000     0.275010000000     0.104650000000    -0.0563934  
C721     C      0.604550000000     0.474260000000     0.130800000000    -0.0563808  
C722     C      0.618080000000     0.459970000000     0.136060000000     0.0215245  
C723     C      0.637810000000     0.465070000000     0.137930000000    -0.0558621  
C724     C      0.643760000000     0.484190000000     0.135200000000     0.0119813  
C725     C      0.630080000000     0.498540000000     0.130550000000    -0.0719499  
C726     C      0.610470000000     0.493300000000     0.128110000000     0.01221    
C727     C      0.611350000000     0.440080000000     0.140430000000     0.0218305  
C728     C      0.594200000000     0.437210000000     0.151290000000    -0.0565673  
C729     C      0.587710000000     0.418660000000     0.155600000000     0.0128428  
C730     C      0.598200000000     0.402470000000     0.149210000000    -0.073006   
C731     C      0.615380000000     0.405250000000     0.138350000000     0.0125566  
C732     C      0.621920000000     0.423900000000     0.134040000000    -0.0562444  
C733     C      0.620300000000     0.592650000000     0.997130000000    -0.0562081  
C734     C      0.613680000000     0.603780000000     0.013030000000     0.021806   
C735     C      0.604950000000     0.621740000000     0.009140000000    -0.0559577  
C736     C      0.602970000000     0.628370000000     0.989840000000     0.0126236  
C737     C      0.609520000000     0.617100000000     0.974040000000    -0.0729315  
C738     C      0.618130000000     0.599160000000     0.977910000000     0.0127061  
C739     C      0.616350000000     0.596710000000     0.033480000000     0.0218377  
C740     C      0.614780000000     0.576930000000     0.037720000000    -0.0563174  
C741     C      0.619150000000     0.569930000000     0.056390000000     0.0132932  
C742     C      0.624850000000     0.582550000000     0.071400000000    -0.0735292  
C743     C      0.625520000000     0.602420000000     0.067550000000     0.012776   
C744     C      0.621420000000     0.609420000000     0.048740000000    -0.0559406  
C745     C      0.742230000000     0.351930000000     0.359200000000    -0.0562732  
C746     C      0.755440000000     0.359680000000     0.372840000000     0.0215633  
C747     C      0.749160000000     0.374690000000     0.385180000000    -0.0559549  
C748     C      0.729870000000     0.381090000000     0.384570000000     0.0126775  
C749     C      0.716440000000     0.372600000000     0.371650000000    -0.0724741  
C750     C      0.722940000000     0.358300000000     0.358630000000     0.0124205  
C751     C      0.775100000000     0.351050000000     0.375410000000     0.0218763  
C752     C      0.777360000000     0.330920000000     0.375130000000    -0.0564286  
C753     C      0.795310000000     0.322530000000     0.379500000000     0.0129753  
C754     C      0.811440000000     0.334050000000     0.384270000000    -0.0739615  
C755     C      0.809440000000     0.354190000000     0.383850000000     0.0127057  
C756     C      0.791430000000     0.362610000000     0.379480000000    -0.0565407  
C757     C      0.613510000000     0.341670000000     0.454740000000    -0.0568535  
C758     C      0.628040000000     0.336970000000     0.468460000000     0.021989   
C759     C      0.647620000000     0.340390000000     0.463630000000    -0.0567324  
C760     C      0.652560000000     0.348700000000     0.445670000000     0.0133893  
C761     C      0.638040000000     0.353670000000     0.432070000000    -0.0742776  
C762     C      0.618470000000     0.349850000000     0.436670000000     0.0134843  
C763     C      0.622880000000     0.329280000000     0.488090000000     0.0216521  
C764     C      0.607810000000     0.337730000000     0.499060000000    -0.0564397  
C765     C      0.603990000000     0.331550000000     0.518180000000     0.0128456  
C766     C      0.615060000000     0.316710000000     0.526670000000    -0.0731085  
C767     C      0.629730000000     0.307850000000     0.515480000000     0.0124675  
C768     C      0.633640000000     0.314130000000     0.496410000000    -0.0564953  
C769     C      0.621530000000     0.342360000000     0.297790000000    -0.0568056  
C770     C      0.610470000000     0.355760000000     0.287070000000     0.0219504  
C771     C      0.606730000000     0.373930000000     0.295300000000    -0.0566113  
C772     C      0.614380000000     0.378840000000     0.313600000000     0.0131772  
C773     C      0.625760000000     0.365600000000     0.324160000000    -0.073383   
C774     C      0.629000000000     0.347200000000     0.316240000000     0.0132011  
C775     C      0.603740000000     0.351330000000     0.266900000000     0.0216159  
C776     C      0.616660000000     0.343360000000     0.253150000000    -0.0562854  
C777     C      0.610980000000     0.340920000000     0.233630000000     0.0127498  
C778     C      0.592190000000     0.346230000000     0.227510000000    -0.0729306  
C779     C      0.579020000000     0.353520000000     0.241420000000     0.0126395  
C780     C      0.584780000000     0.356140000000     0.260900000000    -0.0564602  
C781     C      0.440660000000     0.603380000000     0.369700000000    -0.056055   
C782     C      0.456600000000     0.604080000000     0.382670000000     0.0217648  
C783     C      0.453050000000     0.607650000000     0.402660000000    -0.0565293  
C784     C      0.434230000000     0.611300000000     0.409370000000     0.0131651  
C785     C      0.418410000000     0.611200000000     0.396340000000    -0.0731525  
C786     C      0.421730000000     0.606830000000     0.376500000000     0.0127391  
C787     C      0.476940000000     0.601860000000     0.375460000000     0.02188    
C788     C      0.481650000000     0.588520000000     0.360650000000    -0.0562085  
C789     C      0.500930000000     0.586470000000     0.354230000000     0.0129178  
C790     C      0.515850000000     0.597630000000     0.362590000000    -0.0734059  
C791     C      0.511090000000     0.611060000000     0.377220000000     0.013041   
C792     C      0.491900000000     0.613220000000     0.383480000000    -0.0565205  
C793     C      0.631400000000     0.580240000000     0.219370000000    -0.0565754  
C794     C      0.611380000000     0.581770000000     0.223400000000     0.0218889  
C795     C      0.598130000000     0.581090000000     0.207670000000    -0.056304   
C796     C      0.604760000000     0.578250000000     0.188460000000     0.0130023  
C797     C      0.624720000000     0.575920000000     0.184650000000    -0.0736674  
C798     C      0.637980000000     0.577240000000     0.200260000000     0.0132059  
C799     C      0.604500000000     0.583310000000     0.244030000000     0.0217535  
C800     C      0.613820000000     0.572710000000     0.258890000000    -0.0564512  
C801     C      0.607870000000     0.574320000000     0.278370000000     0.0129439  
C802     C      0.592300000000     0.586420000000     0.283510000000    -0.0733828  
C803     C      0.582660000000     0.596760000000     0.268690000000     0.0129408  
C804     C      0.588720000000     0.595250000000     0.249130000000    -0.0561962  
C805     C      0.595290000000     0.503800000000     0.374950000000    -0.0561781  
C806     C      0.615300000000     0.501820000000     0.378800000000     0.0216425  
C807     C      0.627100000000     0.518370000000     0.378680000000    -0.0563569  
C808     C      0.619180000000     0.536390000000     0.374160000000     0.0127546  
C809     C      0.599310000000     0.538200000000     0.369560000000    -0.0728582  
C810     C      0.587390000000     0.521780000000     0.370360000000     0.0125894  
C811     C      0.623930000000     0.482390000000     0.381620000000     0.0218651  
C812     C      0.614180000000     0.468350000000     0.392770000000    -0.0566301  
C813     C      0.621280000000     0.449510000000     0.393720000000     0.01281    
C814     C      0.638250000000     0.444300000000     0.383490000000    -0.0728735  
C815     C      0.648410000000     0.458490000000     0.372970000000     0.0131097  
C816     C      0.641340000000     0.477350000000     0.372060000000    -0.0562867  
C817     C      0.606240000000     0.680580000000     0.359550000000    -0.0562609  
C818     C      0.609810000000     0.683650000000     0.379610000000     0.021779   
C819     C      0.609490000000     0.667790000000     0.392420000000    -0.0565392  
C820     C      0.605020000000     0.649370000000     0.385420000000     0.0127655  
C821     C      0.600700000000     0.646480000000     0.365490000000    -0.0727292  
C822     C      0.601710000000     0.662210000000     0.352570000000     0.0125476  
C823     C      0.612510000000     0.703540000000     0.387190000000     0.0216197  
C824     C      0.623620000000     0.717030000000     0.376660000000    -0.056357   
C825     C      0.624290000000     0.736290000000     0.382570000000     0.0122486  
C826     C      0.613830000000     0.742470000000     0.399130000000    -0.0722548  
C827     C      0.603420000000     0.728840000000     0.410160000000     0.0126758  
C828     C      0.602780000000     0.709570000000     0.404260000000    -0.05604    
C829     C      0.849480000000     0.847720000000     0.239020000000    -0.0564508  
C830     C      0.862140000000     0.853470000000     0.254110000000     0.0215355  
C831     C      0.881970000000     0.856200000000     0.249740000000    -0.0559263  
C832     C      0.888860000000     0.853690000000     0.230590000000     0.0121629  
C833     C      0.876050000000     0.848380000000     0.215460000000    -0.0722691  
C834     C      0.856340000000     0.845230000000     0.219940000000     0.0123281  
C835     C      0.854440000000     0.857240000000     0.274100000000     0.021693   
C836     C      0.836690000000     0.867050000000     0.276490000000    -0.0564336  
C837     C      0.829370000000     0.870860000000     0.295170000000     0.0125452  
C838     C      0.839620000000     0.864960000000     0.311950000000    -0.0728051  
C839     C      0.857330000000     0.855070000000     0.309640000000     0.0126916  
C840     C      0.864690000000     0.851280000000     0.290890000000    -0.0562811  
C841     C      0.878480000000     0.932460000000     0.127180000000    -0.0564316  
C842     C      0.858400000000     0.936460000000     0.127620000000     0.0218619  
C843     C      0.845330000000     0.921150000000     0.130850000000    -0.0560398  
C844     C      0.852250000000     0.902480000000     0.134280000000     0.01281    
C845     C      0.872350000000     0.898810000000     0.134800000000    -0.0733301  
C846     C      0.885370000000     0.913910000000     0.130910000000     0.0132835  
C847     C      0.851310000000     0.956670000000     0.125710000000     0.0216893  
C848     C      0.862040000000     0.971880000000     0.134020000000    -0.0560259  
C849     C      0.855540000000     0.990850000000     0.132520000000     0.0120317  
C850     C      0.837980000000     0.995130000000     0.122920000000    -0.0730439  
C851     C      0.827100000000     0.980010000000     0.114720000000     0.0127163  
C852     C      0.833740000000     0.960970000000     0.116010000000    -0.0561022  
C853     C      0.488620000000     0.847430000000     0.882350000000    -0.0564446  
C854     C      0.474180000000     0.840520000000     0.869560000000     0.0215992  
C855     C      0.479130000000     0.836750000000     0.849920000000    -0.0561048  
C856     C      0.498270000000     0.839310000000     0.843370000000     0.0122292  
C857     C      0.512790000000     0.845770000000     0.856320000000    -0.0727971  
C858     C      0.507700000000     0.850050000000     0.875800000000     0.0123203  
C859     C      0.454260000000     0.836450000000     0.876950000000     0.0217673  
C860     C      0.451690000000     0.827070000000     0.895030000000    -0.0564226  
C861     C      0.433060000000     0.822570000000     0.901800000000     0.012763   
C862     C      0.416540000000     0.827420000000     0.890700000000    -0.0726331  
C863     C      0.419050000000     0.837050000000     0.872740000000     0.0126603  
C864     C      0.437740000000     0.841460000000     0.865900000000    -0.0563565  
C865     C      0.595530000000     0.770500000000     0.888730000000    -0.0559296  
C866     C      0.600420000000     0.755650000000     0.875550000000     0.0217966  
C867     C      0.602690000000     0.760220000000     0.855580000000    -0.0563635  
C868     C      0.599150000000     0.778850000000     0.848800000000     0.0131801  
C869     C      0.593550000000     0.793480000000     0.861840000000    -0.0731479  
C870     C      0.592230000000     0.789260000000     0.881940000000     0.0125592  
C871     C      0.602110000000     0.735310000000     0.882290000000     0.0217219  
C872     C      0.610310000000     0.730710000000     0.900630000000    -0.0559789  
C873     C      0.611380000000     0.711530000000     0.906920000000     0.0126219  
C874     C      0.604410000000     0.696570000000     0.894950000000    -0.0727528  
C875     C      0.596320000000     0.701150000000     0.876640000000     0.0126326  
C876     C      0.595080000000     0.720250000000     0.870440000000    -0.0561979  
C877     C      0.728390000000     0.838610000000     0.605260000000    -0.0561715  
C878     C      0.744160000000     0.849890000000     0.611720000000     0.0216882  
C879     C      0.740280000000     0.868000000000     0.620150000000    -0.0559383  
C880     C      0.721110000000     0.874600000000     0.622080000000     0.0126278  
C881     C      0.705440000000     0.863140000000     0.615800000000    -0.0728079  
C882     C      0.709290000000     0.845090000000     0.607410000000     0.012709   
C883     C      0.764480000000     0.842740000000     0.609410000000     0.0220401  
C884     C      0.768640000000     0.823020000000     0.611560000000    -0.0565785  
C885     C      0.787280000000     0.815940000000     0.607810000000     0.0136635  
C886     C      0.802320000000     0.828430000000     0.602150000000    -0.073924   
C887     C      0.798510000000     0.848260000000     0.600840000000     0.0130319  
C888     C      0.779730000000     0.855340000000     0.604310000000    -0.0561673  
C889     C      0.610870000000     0.832040000000     0.547480000000    -0.0565257  
C890     C      0.611910000000     0.843130000000     0.530260000000     0.0217171  
C891     C      0.617990000000     0.862420000000     0.531570000000    -0.0565264  
C892     C      0.623380000000     0.870310000000     0.549600000000     0.0126738  
C893     C      0.622710000000     0.859130000000     0.566760000000    -0.0728474  
C894     C      0.616130000000     0.840000000000     0.565570000000     0.0127679  
C895     C      0.607730000000     0.834460000000     0.510810000000     0.0217075  
C896     C      0.615410000000     0.816340000000     0.505830000000    -0.0561721  
C897     C      0.613380000000     0.809130000000     0.486790000000     0.0127705  
C898     C      0.603550000000     0.819870000000     0.472390000000    -0.0725189  
C899     C      0.595080000000     0.837560000000     0.477630000000     0.0126057  
C900     C      0.597190000000     0.844800000000     0.496630000000    -0.0566441  
C901     C      0.599870000000     0.852060000000     0.701370000000    -0.0564402  
C902     C      0.611310000000     0.856540000000     0.717870000000     0.0218956  
C903     C      0.629670000000     0.865020000000     0.714990000000    -0.0566012  
C904     C      0.636380000000     0.869090000000     0.696130000000     0.0128069  
C905     C      0.624870000000     0.864860000000     0.679660000000    -0.0739017  
C906     C      0.606580000000     0.856190000000     0.682450000000     0.0128632  
C907     C      0.604030000000     0.852940000000     0.738080000000     0.0214634  
C908     C      0.584550000000     0.856810000000     0.743080000000    -0.0558364  
C909     C      0.578150000000     0.854820000000     0.762450000000     0.0120322  
C910     C      0.591140000000     0.848980000000     0.777230000000    -0.0718583  
C911     C      0.610440000000     0.844560000000     0.772140000000     0.0122692  
C912     C      0.616800000000     0.846450000000     0.752790000000    -0.0563626  
C913     C      0.977040000000     0.838590000000     0.646510000000    -0.0559763  
C914     C      0.972780000000     0.828680000000     0.629010000000     0.0217873  
C915     C      0.988180000000     0.820150000000     0.618550000000    -0.0565096  
C916     C      0.007330000000     0.821770000000     0.625150000000     0.0130638  
C917     C      0.011580000000     0.831720000000     0.642540000000    -0.0725917  
C918     C      0.996250000000     0.840020000000     0.653250000000     0.0124745  
C919     C      0.952430000000     0.827020000000     0.621620000000     0.0219462  
C920     C      0.936710000000     0.824330000000     0.634590000000    -0.0562221  
C921     C      0.917840000000     0.821460000000     0.627380000000     0.0130939  
C922     C      0.914370000000     0.820990000000     0.607090000000    -0.0738293  
C923     C      0.929930000000     0.824250000000     0.594170000000     0.013477   
C924     C      0.948680000000     0.827390000000     0.601340000000    -0.0564983  
C925     C      0.081870000000     0.848320000000     0.756770000000    -0.0561496  
C926     C      0.101760000000     0.847950000000     0.761670000000     0.0215066  
C927     C      0.115420000000     0.843700000000     0.746950000000    -0.0560377  
C928     C      0.109400000000     0.840360000000     0.727680000000     0.0122855  
C929     C      0.089570000000     0.841130000000     0.722700000000    -0.0725166  
C930     C      0.075830000000     0.844880000000     0.737490000000     0.0122123  
C931     C      0.108420000000     0.852930000000     0.781780000000     0.0219158  
C932     C      0.100360000000     0.868780000000     0.791720000000    -0.0564432  
C933     C      0.107830000000     0.874600000000     0.809840000000     0.0129305  
C934     C      0.123470000000     0.864650000000     0.818450000000    -0.0734885  
C935     C      0.131060000000     0.848380000000     0.808870000000     0.0129047  
C936     C      0.123640000000     0.842610000000     0.790710000000    -0.0565693  
C937     C      0.104530000000     0.759490000000     0.615020000000    -0.0563647  
C938     C      0.100220000000     0.742930000000     0.626080000000     0.0217091  
C939     C      0.091810000000     0.745140000000     0.644740000000    -0.0562869  
C940     C      0.087460000000     0.763430000000     0.652030000000     0.0125284  
C941     C      0.091460000000     0.779960000000     0.640860000000    -0.0726101  
C942     C      0.100230000000     0.777820000000     0.622360000000     0.012727   
C943     C      0.103850000000     0.723360000000     0.618030000000     0.0217282  
C944     C      0.099140000000     0.718970000000     0.598450000000    -0.0561662  
C945     C      0.101190000000     0.700190000000     0.591330000000     0.0126497  
C946     C      0.108030000000     0.685420000000     0.603620000000    -0.0734227  
C947     C      0.113280000000     0.689930000000     0.623000000000     0.0126323  
C948     C      0.111210000000     0.708680000000     0.630120000000    -0.0565605  
C949     C      0.088420000000     0.925460000000     0.633830000000    -0.0562948  
C950     C      0.107570000000     0.927520000000     0.626870000000     0.0216892  
C951     C      0.119280000000     0.910990000000     0.625030000000    -0.0562675  
C952     C      0.112130000000     0.892890000000     0.630470000000     0.0126715  
C953     C      0.093150000000     0.890970000000     0.637910000000    -0.073417   
C954     C      0.081290000000     0.907410000000     0.639280000000     0.0125776  
C955     C      0.115520000000     0.947010000000     0.622710000000     0.0217222  
C956     C      0.103920000000     0.961080000000     0.613560000000    -0.0564352  
C957     C      0.110590000000     0.980000000000     0.611630000000     0.0124275  
C958     C      0.129020000000     0.985260000000     0.618800000000    -0.0731242  
C959     C      0.140970000000     0.971020000000     0.627160000000     0.0128617  
C960     C      0.134290000000     0.952100000000     0.629090000000    -0.0561774  
C961     C      0.332320000000     0.097580000000     0.451220000000    -0.0562038  
C962     C      0.347170000000     0.089090000000     0.462470000000     0.0217053  
C963     C      0.357990000000     0.073880000000     0.454310000000    -0.0564293  
C964     C      0.353560000000     0.066820000000     0.435630000000     0.0126851  
C965     C      0.338150000000     0.074770000000     0.424760000000    -0.0732321  
C966     C      0.327830000000     0.090470000000     0.432580000000     0.0127841  
C967     C      0.350450000000     0.095210000000     0.483080000000     0.0216999  
C968     C      0.350240000000     0.114800000000     0.488320000000    -0.0563804  
C969     C      0.352140000000     0.120340000000     0.507970000000     0.0125195  
C970     C      0.354130000000     0.106390000000     0.522760000000    -0.0729423  
C971     C      0.354660000000     0.086840000000     0.517480000000     0.0126344  
C972     C      0.352890000000     0.081310000000     0.497870000000    -0.0563905  
C973     C      0.367820000000     0.256280000000     0.612100000000    -0.0560813  
C974     C      0.366690000000     0.240450000000     0.624940000000     0.0218534  
C975     C      0.368170000000     0.243770000000     0.645240000000    -0.0565082  
C976     C      0.371590000000     0.262260000000     0.652460000000     0.0132432  
C977     C      0.373330000000     0.277960000000     0.639610000000    -0.0735488  
C978     C      0.371030000000     0.274880000000     0.619380000000     0.0128264  
C979     C      0.364760000000     0.220430000000     0.617340000000     0.0217589  
C980     C      0.352960000000     0.216230000000     0.601010000000    -0.0560781  
C981     C      0.351230000000     0.197290000000     0.594130000000     0.0126717  
C982     C      0.361170000000     0.182190000000     0.603510000000    -0.0728238  
C983     C      0.373060000000     0.186420000000     0.619690000000     0.012751   
C984     C      0.374920000000     0.205280000000     0.626440000000    -0.0563563  
C985     C      0.230110000000     0.088150000000     0.632210000000    -0.0564729  
C986     C      0.244530000000     0.077000000000     0.622980000000     0.0216805  
C987     C      0.239800000000     0.058280000000     0.616710000000    -0.0561186  
C988     C      0.220860000000     0.051220000000     0.618810000000     0.0128871  
C989     C      0.206250000000     0.062730000000     0.627210000000    -0.0727339  
C990     C      0.211170000000     0.081100000000     0.634300000000     0.012442   
C991     C      0.263990000000     0.085310000000     0.618640000000     0.0219107  
C992     C      0.265580000000     0.104280000000     0.611620000000    -0.0565495  
C993     C      0.283640000000     0.111740000000     0.606080000000     0.0128852  
C994     C      0.300520000000     0.100410000000     0.607430000000    -0.0738431  
C995     C      0.299050000000     0.081600000000     0.614910000000     0.0130112  
C996     C      0.280960000000     0.074120000000     0.620440000000    -0.0565337  
C997     C      0.472590000000     0.097130000000     0.649570000000    -0.0563284  
C998     C      0.467220000000     0.088280000000     0.631830000000     0.0217515  
C999     C      0.481090000000     0.077280000000     0.621660000000    -0.0566192  
C1000    C      0.500160000000     0.075820000000     0.628620000000     0.0127072  
C1001    C      0.505780000000     0.085440000000     0.645850000000    -0.0727514  
C1002    C      0.491700000000     0.095760000000     0.656490000000     0.0129148  
C1003    C      0.447650000000     0.091680000000     0.623290000000     0.0217812  
C1004    C      0.430890000000     0.091200000000     0.635100000000    -0.0566264  
C1005    C      0.412680000000     0.095790000000     0.627210000000     0.0129602  
C1006    C      0.410920000000     0.101130000000     0.607400000000    -0.072907   
C1007    C      0.427610000000     0.101200000000     0.595510000000     0.0128836  
C1008    C      0.445770000000     0.096470000000     0.603350000000    -0.0565552  
C1009    C      0.619300000000     0.011860000000     0.647370000000    -0.0567667  
C1010    C      0.613010000000     0.002340000000     0.630320000000     0.0227043  
C1011    C      0.599820000000     0.011690000000     0.617770000000    -0.0570335  
C1012    C      0.592540000000     0.029900000000     0.622520000000     0.0132726  
C1013    C      0.598180000000     0.039040000000     0.640000000000    -0.0737783  
C1014    C      0.611900000000     0.029990000000     0.652200000000     0.0133569  
C1015    C      0.619170000000     0.982230000000     0.626420000000     0.0207628  
C1016    C      0.638650000000     0.976560000000     0.629010000000    -0.0562141  
C1017    C      0.644050000000     0.957270000000     0.626780000000     0.0122835  
C1018    C      0.630030000000     0.943240000000     0.622130000000    -0.0727397  
C1019    C      0.610640000000     0.948990000000     0.619110000000     0.0123748  
C1020    C      0.605290000000     0.968280000000     0.621160000000    -0.0560725  
C1021    C      0.610010000000     0.169720000000     0.628190000000    -0.0570377  
C1022    C      0.596410000000     0.180670000000     0.617550000000     0.0221848  
C1023    C      0.577970000000     0.172790000000     0.613700000000    -0.0569739  
C1024    C      0.572990000000     0.154620000000     0.620870000000     0.0139557  
C1025    C      0.586400000000     0.143850000000     0.631910000000    -0.0749957  
C1026    C      0.605090000000     0.151420000000     0.635210000000     0.0137713  
C1027    C      0.600870000000     0.200690000000     0.611450000000     0.021541   
C1028    C      0.609280000000     0.213660000000     0.624800000000    -0.0561959  
C1029    C      0.611650000000     0.233040000000     0.619800000000     0.0126233  
C1030    C      0.605790000000     0.239790000000     0.601300000000    -0.072716   
C1031    C      0.598060000000     0.226670000000     0.587670000000     0.0125268  
C1032    C      0.595550000000     0.207330000000     0.592730000000    -0.0565174  
C1033    C      0.780000000000     0.091750000000     0.873880000000    -0.0565514  
C1034    C      0.765300000000     0.091400000000     0.888230000000     0.0219032  
C1035    C      0.769160000000     0.099330000000     0.906780000000    -0.0566589  
C1036    C      0.787220000000     0.107600000000     0.910850000000     0.0130231  
C1037    C      0.801910000000     0.108050000000     0.896510000000    -0.073645   
C1038    C      0.798180000000     0.099910000000     0.878020000000     0.013105   
C1039    C      0.745690000000     0.083510000000     0.883830000000     0.0216698  
C1040    C      0.736120000000     0.088400000000     0.866320000000    -0.0561492  
C1041    C      0.716870000000     0.082650000000     0.863110000000     0.0127849  
C1042    C      0.706850000000     0.071810000000     0.877300000000    -0.0729994  
C1043    C      0.716700000000     0.066220000000     0.894440000000     0.0124198  
C1044    C      0.735910000000     0.072050000000     0.897690000000    -0.0565354  
C1045    C      0.619930000000     0.926450000000     0.870260000000    -0.0565964  
C1046    C      0.614320000000     0.942050000000     0.858400000000     0.0219349  
C1047    C      0.600480000000     0.939040000000     0.843560000000    -0.0568353  
C1048    C      0.592440000000     0.920830000000     0.840560000000     0.0129186  
C1049    C      0.598190000000     0.905140000000     0.852210000000    -0.0734306  
C1050    C      0.612040000000     0.908090000000     0.867090000000     0.0128871  
C1051    C      0.622540000000     0.961570000000     0.861450000000     0.0212529  
C1052    C      0.623140000000     0.969810000000     0.880260000000    -0.055875   
C1053    C      0.629040000000     0.988950000000     0.882740000000     0.0118843  
C1054    C      0.634640000000     0.000120000000     0.866490000000    -0.0716849  
C1055    C      0.634840000000     0.991570000000     0.847810000000     0.0115095  
C1056    C      0.628780000000     0.972540000000     0.845310000000    -0.0562965  
C1057    C      0.576680000000     0.076240000000     0.754570000000    -0.0562041  
C1058    C      0.587800000000     0.091230000000     0.762760000000     0.0219191  
C1059    C      0.592080000000     0.107430000000     0.751160000000    -0.0565809  
C1060    C      0.586190000000     0.108210000000     0.731560000000     0.0130619  
C1061    C      0.575870000000     0.092820000000     0.723140000000    -0.0730013  
C1062    C      0.570770000000     0.077030000000     0.734960000000     0.0131292  
C1063    C      0.596230000000     0.089220000000     0.782730000000     0.0215739  
C1064    C      0.585420000000     0.080970000000     0.798110000000    -0.0563513  
C1065    C      0.594120000000     0.077400000000     0.816310000000     0.0121983  
C1066    C      0.613810000000     0.081950000000     0.819460000000    -0.0724656  
C1067    C      0.624400000000     0.090820000000     0.804330000000     0.0125997  
C1068    C      0.615710000000     0.094420000000     0.786190000000    -0.0558158  
C1069    C      0.607780000000     0.093420000000     0.954830000000    -0.0559628  
C1070    C      0.614840000000     0.112030000000     0.958800000000     0.0217122  
C1071    C      0.625280000000     0.121790000000     0.944100000000    -0.0564138  
C1072    C      0.629240000000     0.112840000000     0.926160000000     0.0124355  
C1073    C      0.622870000000     0.093930000000     0.922560000000    -0.0730463  
C1074    C      0.611740000000     0.084480000000     0.936910000000     0.0128141  
C1075    C      0.612550000000     0.120520000000     0.978690000000     0.0219145  
C1076    C      0.595200000000     0.117990000000     0.989340000000    -0.0564665  
C1077    C      0.593920000000     0.123950000000     0.008880000000     0.0130636  
C1078    C      0.609960000000     0.132570000000     0.018190000000    -0.0728658  
C1079    C      0.626980000000     0.135930000000     0.007290000000     0.0130104  
C1080    C      0.628270000000     0.129960000000     0.987760000000    -0.0562386  
C1081    C      0.859330000000     0.615130000000     0.986160000000    -0.0561351  
C1082    C      0.848530000000     0.598310000000     0.982340000000     0.0218811  
C1083    C      0.840400000000     0.588220000000     0.998250000000    -0.0564123  
C1084    C      0.843150000000     0.594610000000     0.017420000000     0.0130304  
C1085    C      0.853860000000     0.611410000000     0.021230000000    -0.073246   
C1086    C      0.861900000000     0.621670000000     0.005420000000     0.0129571  
C1087    C      0.845390000000     0.591290000000     0.961940000000     0.0218862  
C1088    C      0.842170000000     0.604260000000     0.946400000000    -0.0560408  
C1089    C      0.837740000000     0.597460000000     0.927580000000     0.0128943  
C1090    C      0.836200000000     0.577600000000     0.924030000000    -0.0733786  
C1091    C      0.840010000000     0.564650000000     0.939360000000     0.0133284  
C1092    C      0.844720000000     0.571400000000     0.958030000000    -0.0564473  
C1093    C      0.858250000000     0.725100000000     0.093230000000    -0.0561266  
C1094    C      0.866840000000     0.729650000000     0.111390000000     0.0217777  
C1095    C      0.873790000000     0.714560000000     0.123240000000    -0.0563319  
C1096    C      0.872010000000     0.695440000000     0.117250000000     0.0127346  
C1097    C      0.863430000000     0.690880000000     0.099150000000    -0.0730642  
C1098    C      0.856620000000     0.705890000000     0.087140000000     0.012725   
C1099    C      0.868890000000     0.749990000000     0.118020000000     0.0219073  
C1100    C      0.873830000000     0.764730000000     0.104740000000    -0.0562018  
C1101    C      0.877260000000     0.783510000000     0.111410000000     0.0129257  
C1102    C      0.876000000000     0.787840000000     0.131490000000    -0.0738619  
C1103    C      0.870400000000     0.773300000000     0.144640000000     0.0134603  
C1104    C      0.866750000000     0.754660000000     0.137980000000    -0.0565678  
C1105    C      0.740290000000     0.570950000000     0.111900000000    -0.0558951  
C1106    C      0.745400000000     0.590000000000     0.116680000000     0.0215448  
C1107    C      0.731090000000     0.602230000000     0.124560000000    -0.0563287  
C1108    C      0.712020000000     0.595750000000     0.127120000000     0.0122373  
C1109    C      0.706790000000     0.576870000000     0.121910000000    -0.0722486  
C1110    C      0.721170000000     0.564440000000     0.114490000000     0.0119974  
C1111    C      0.765320000000     0.597410000000     0.112660000000     0.0217116  
C1112    C      0.781860000000     0.586040000000     0.116340000000    -0.0562609  
C1113    C      0.800490000000     0.592890000000     0.111770000000     0.0125401  
C1114    C      0.802920000000     0.611220000000     0.103370000000    -0.0725991  
C1115    C      0.786410000000     0.622690000000     0.100000000000     0.0124279  
C1116    C      0.767850000000     0.615880000000     0.104580000000    -0.0563324  
C1117    C      0.370480000000     0.168730000000     0.115700000000    -0.0561359  
C1118    C      0.375180000000     0.185220000000     0.126710000000     0.0216554  
C1119    C      0.384360000000     0.182880000000     0.144980000000    -0.0563786  
C1120    C      0.388850000000     0.164550000000     0.152030000000     0.0125238  
C1121    C      0.384300000000     0.148080000000     0.140990000000    -0.0728589  
C1122    C      0.374980000000     0.150330000000     0.122780000000     0.0124389  
C1123    C      0.371000000000     0.204870000000     0.119110000000     0.0215585  
C1124    C      0.374490000000     0.209550000000     0.099350000000    -0.0560139  
C1125    C      0.371980000000     0.228450000000     0.092660000000     0.0122297  
C1126    C      0.365950000000     0.243030000000     0.105600000000    -0.0718588  
C1127    C      0.361860000000     0.238220000000     0.125180000000     0.0122108  
C1128    C      0.364320000000     0.219360000000     0.131850000000    -0.0564007  
C1129    C      0.368950000000     0.344550000000     0.001300000000    -0.0563149  
C1130    C      0.357600000000     0.334310000000     0.987680000000     0.0215768  
C1131    C      0.349630000000     0.316470000000     0.993260000000    -0.0562018  
C1132    C      0.352350000000     0.309390000000     0.012280000000     0.0125822  
C1133    C      0.363140000000     0.319980000000     0.026070000000    -0.073325   
C1134    C      0.371710000000     0.337460000000     0.020260000000     0.0126212  
C1135    C      0.353190000000     0.342730000000     0.968150000000     0.0216539  
C1136    C      0.348120000000     0.362280000000     0.966500000000    -0.0561826  
C1137    C      0.342790000000     0.370070000000     0.948400000000     0.0125079  
C1138    C      0.342470000000     0.358510000000     0.931500000000    -0.0725857  
C1139    C      0.348000000000     0.339070000000     0.933010000000     0.0126094  
C1140    C      0.353240000000     0.331240000000     0.951170000000    -0.0562814  
C1141    C      0.485540000000     0.348250000000     0.136360000000    -0.0566692  
C1142    C      0.476800000000     0.330250000000     0.139630000000     0.0217633  
C1143    C      0.487250000000     0.316020000000     0.149840000000    -0.0569556  
C1144    C      0.506240000000     0.319560000000     0.156230000000     0.0130214  
C1145    C      0.515260000000     0.337300000000     0.152300000000    -0.073638   
C1146    C      0.504640000000     0.351700000000     0.142520000000     0.01338    
C1147    C      0.457320000000     0.325910000000     0.131420000000     0.021885   
C1148    C      0.441710000000     0.338790000000     0.133800000000    -0.05679    
C1149    C      0.423500000000     0.334700000000     0.125570000000     0.0132378  
C1150    C      0.420710000000     0.317820000000     0.114530000000    -0.0737155  
C1151    C      0.436370000000     0.305010000000     0.112150000000     0.0133761  
C1152    C      0.454430000000     0.308940000000     0.120600000000    -0.0569979  
C1153    C      0.996170000000     0.335170000000     0.381830000000    -0.0567537  
C1154    C      0.981420000000     0.330470000000     0.368380000000     0.0216892  
C1155    C      0.986340000000     0.328180000000     0.348480000000    -0.0562975  
C1156    C      0.005670000000     0.330170000000     0.342280000000     0.0123919  
C1157    C      0.020430000000     0.334500000000     0.355850000000    -0.072161   
C1158    C      0.015440000000     0.337140000000     0.375640000000     0.0125305  
C1159    C      0.961120000000     0.327390000000     0.375270000000     0.021705   
C1160    C      0.957600000000     0.317330000000     0.392810000000    -0.0565918  
C1161    C      0.938600000000     0.314140000000     0.399300000000     0.0127708  
C1162    C      0.922640000000     0.320910000000     0.388420000000    -0.072985   
C1163    C      0.926100000000     0.331080000000     0.370940000000     0.0128094  
C1164    C      0.945150000000     0.334270000000     0.364420000000    -0.0562815  
C1165    C      0.129330000000     0.417850000000     0.360470000000    -0.0561584  
C1166    C      0.115870000000     0.432900000000     0.363290000000     0.0219185  
C1167    C      0.095920000000     0.428410000000     0.364030000000    -0.0565321  
C1168    C      0.089500000000     0.409590000000     0.360970000000     0.0134703  
C1169    C      0.102880000000     0.394720000000     0.357400000000    -0.0738132  
C1170    C      0.122890000000     0.398920000000     0.357640000000     0.0129916  
C1171    C      0.122390000000     0.453320000000     0.364530000000     0.0218251  
C1172    C      0.139610000000     0.458440000000     0.374440000000    -0.0561539  
C1173    C      0.145510000000     0.477730000000     0.375450000000     0.0129031  
C1174    C      0.134240000000     0.492260000000     0.366680000000    -0.0731668  
C1175    C      0.117140000000     0.487130000000     0.356690000000     0.0129012  
C1176    C      0.111360000000     0.467920000000     0.355530000000    -0.0563394  
C1177    C      0.116240000000     0.218880000000     0.398040000000    -0.0559888  
C1178    C      0.107860000000     0.223980000000     0.379920000000     0.0217169  
C1179    C      0.100190000000     0.209300000000     0.367970000000    -0.0561409  
C1180    C      0.101000000000     0.190090000000     0.373840000000     0.0129545  
C1181    C      0.109270000000     0.185010000000     0.391940000000    -0.0728067  
C1182    C      0.116860000000     0.199580000000     0.404020000000     0.012725   
C1183    C      0.106610000000     0.244460000000     0.373520000000     0.0220887  
C1184    C      0.102490000000     0.259240000000     0.387030000000    -0.0561687  
C1185    C      0.099530000000     0.278170000000     0.380600000000     0.0130376  
C1186    C      0.100410000000     0.282620000000     0.360520000000    -0.0737867  
C1187    C      0.105270000000     0.268040000000     0.347130000000     0.0136552  
C1188    C      0.108510000000     0.249240000000     0.353560000000    -0.056646   
C1189    C      0.131560000000     0.578230000000     0.279310000000    -0.0561647  
C1190    C      0.111870000000     0.583430000000     0.277370000000     0.0216712  
C1191    C      0.100200000000     0.584350000000     0.294280000000    -0.0563343  
C1192    C      0.107990000000     0.579840000000     0.312680000000     0.0126839  
C1193    C      0.127560000000     0.574200000000     0.314520000000    -0.0726098  
C1194    C      0.139310000000     0.573640000000     0.297660000000     0.0123843  
C1195    C      0.103470000000     0.587140000000     0.257630000000     0.0217728  
C1196    C      0.114030000000     0.597660000000     0.243600000000    -0.0566497  
C1197    C      0.106890000000     0.599830000000     0.224550000000     0.012819   
C1198    C      0.089060000000     0.591480000000     0.219060000000    -0.0735987  
C1199    C      0.078190000000     0.581480000000     0.233240000000     0.0126438  
C1200    C      0.085310000000     0.579350000000     0.252340000000    -0.0561871  
C1201    C      0.950690000000     0.607970000000     0.098350000000    -0.0563177  
C1202    C      0.952870000000     0.599780000000     0.117080000000     0.0216321  
C1203    C      0.936100000000     0.596070000000     0.128310000000    -0.0562053  
C1204    C      0.917610000000     0.600760000000     0.121080000000     0.0124063  
C1205    C      0.915540000000     0.609290000000     0.102500000000    -0.0726577  
C1206    C      0.932260000000     0.612640000000     0.091150000000     0.0123537  
C1207    C      0.972660000000     0.595870000000     0.125010000000     0.0215451  
C1208    C      0.987390000000     0.588650000000     0.112730000000    -0.0566175  
C1209    C      0.006420000000     0.586610000000     0.119620000000     0.0124765  
C1210    C      0.011180000000     0.591650000000     0.138990000000    -0.0716097  
C1211    C      0.996340000000     0.598180000000     0.151530000000     0.0119156  
C1212    C      0.977280000000     0.600300000000     0.144600000000    -0.0558702  
C1213    C      0.123530000000     0.814270000000     0.984860000000    -0.0565435  
C1214    C      0.119650000000     0.833520000000     0.979770000000     0.0218716  
C1215    C      0.112640000000     0.846120000000     0.994280000000    -0.0564891  
C1216    C      0.109910000000     0.839720000000     0.013500000000     0.0129087  
C1217    C      0.114090000000     0.820570000000     0.018670000000    -0.0732669  
C1218    C      0.120750000000     0.807850000000     0.004110000000     0.0128638  
C1219    C      0.123710000000     0.840760000000     0.959660000000     0.0217404  
C1220    C      0.140900000000     0.835410000000     0.949890000000    -0.0563037  
C1221    C      0.145570000000     0.843420000000     0.931690000000     0.0128916  
C1222    C      0.133140000000     0.856940000000     0.922830000000    -0.0734068  
C1223    C      0.115630000000     0.861820000000     0.932250000000     0.0127196  
C1224    C      0.110970000000     0.853820000000     0.950490000000    -0.0563604  
C1225    C      0.114480000000     0.712930000000     0.111670000000    -0.0567009  
C1226    C      0.098120000000     0.702570000000     0.105270000000     0.0218536  
C1227    C      0.085070000000     0.711310000000     0.092150000000    -0.0569465  
C1228    C      0.088060000000     0.730250000000     0.085910000000     0.0129405  
C1229    C      0.103980000000     0.740920000000     0.092940000000    -0.0735287  
C1230    C      0.117300000000     0.732000000000     0.105690000000     0.0132873  
C1231    C      0.093950000000     0.683180000000     0.113260000000     0.0217507  
C1232    C      0.108280000000     0.668730000000     0.113420000000    -0.0565735  
C1233    C      0.104270000000     0.650620000000     0.121530000000     0.0131111  
C1234    C      0.085990000000     0.646850000000     0.129970000000    -0.0734823  
C1235    C      0.071720000000     0.661340000000     0.129800000000     0.0133605  
C1236    C      0.075600000000     0.679250000000     0.121390000000    -0.0568263  
C1237    C      0.179890000000     0.854020000000     0.116890000000    -0.0562908  
C1238    C      0.197460000000     0.843860000000     0.114590000000     0.021697   
C1239    C      0.196940000000     0.825260000000     0.106470000000    -0.0563172  
C1240    C      0.179340000000     0.817100000000     0.100520000000     0.0124676  
C1241    C      0.161800000000     0.827310000000     0.102580000000    -0.0722529  
C1242    C      0.162210000000     0.845780000000     0.111020000000     0.0123375  
C1243    C      0.216450000000     0.852760000000     0.119790000000     0.0215671  
C1244    C      0.220650000000     0.871880000000     0.114430000000    -0.0559856  
C1245    C      0.239310000000     0.879480000000     0.117260000000     0.0124497  
C1246    C      0.254120000000     0.868110000000     0.125530000000    -0.0725878  
C1247    C      0.249650000000     0.849330000000     0.131770000000     0.0122495  
C1248    C      0.231030000000     0.841750000000     0.128920000000    -0.0564359  
C1249    C      0.031280000000     0.829060000000     0.131440000000    -0.0563575  
C1250    C      0.014890000000     0.829040000000     0.119060000000     0.022107   
C1251    C      0.017410000000     0.824460000000     0.099140000000    -0.0566149  
C1252    C      0.035800000000     0.820020000000     0.091760000000     0.0127678  
C1253    C      0.052170000000     0.819940000000     0.104100000000    -0.0730752  
C1254    C      0.049760000000     0.824560000000     0.124020000000     0.0124376  
C1255    C      0.995100000000     0.833410000000     0.126740000000     0.0211577  
C1256    C      0.988840000000     0.826090000000     0.144920000000    -0.0557198  
C1257    C      0.969650000000     0.828950000000     0.151260000000     0.0117675  
C1258    C      0.956360000000     0.839120000000     0.139490000000    -0.0720333  
C1259    C      0.962810000000     0.846960000000     0.121660000000     0.0123515  
C1260    C      0.981950000000     0.844220000000     0.115400000000    -0.0562111  
C1261    C      0.276380000000     0.322900000000     0.117860000000    -0.0563912  
C1262    C      0.272060000000     0.342440000000     0.114600000000     0.0218779  
C1263    C      0.287140000000     0.354800000000     0.108490000000    -0.0560752  
C1264    C      0.305870000000     0.347600000000     0.105010000000     0.0126594  
C1265    C      0.309830000000     0.327890000000     0.107390000000    -0.0732735  
C1266    C      0.294990000000     0.315690000000     0.114170000000     0.0131641  
C1267    C      0.251710000000     0.349580000000     0.116630000000     0.0217169  
C1268    C      0.236030000000     0.337940000000     0.110650000000    -0.0561779  
C1269    C      0.216900000000     0.344470000000     0.112280000000     0.0126931  
C1270    C      0.212900000000     0.362900000000     0.119720000000    -0.0728999  
C1271    C      0.228490000000     0.374670000000     0.125600000000     0.0126616  
C1272    C      0.247710000000     0.368060000000     0.124130000000    -0.056052   
C1273    C      0.091430000000     0.503670000000     0.128720000000    -0.0563374  
C1274    C      0.111430000000     0.499770000000     0.130770000000     0.0218442  
C1275    C      0.124040000000     0.515020000000     0.135660000000    -0.0560128  
C1276    C      0.116690000000     0.533520000000     0.139140000000     0.0126676  
C1277    C      0.096590000000     0.537080000000     0.138000000000    -0.0732233  
C1278    C      0.084090000000     0.522040000000     0.132440000000     0.0131737  
C1279    C      0.118820000000     0.479690000000     0.128770000000     0.0217453  
C1280    C      0.107670000000     0.464170000000     0.135820000000    -0.0562213  
C1281    C      0.114430000000     0.445300000000     0.134210000000     0.0126453  
C1282    C      0.132630000000     0.441420000000     0.125710000000    -0.0727869  
C1283    C      0.143920000000     0.456850000000     0.118750000000     0.0126052  
C1284    C      0.137060000000     0.475800000000     0.120200000000    -0.0559825  
C1285    C      0.092210000000     0.351210000000     0.243390000000    -0.055768   
C1286    C      0.111960000000     0.348630000000     0.238540000000     0.0214668  
C1287    C      0.124960000000     0.342680000000     0.253250000000    -0.0562853  
C1288    C      0.118540000000     0.339940000000     0.272460000000     0.0121123  
C1289    C      0.098930000000     0.343010000000     0.277430000000    -0.0718764  
C1290    C      0.085760000000     0.348410000000     0.262650000000     0.0119325  
C1291    C      0.119210000000     0.352940000000     0.218470000000     0.0217783  
C1292    C      0.108460000000     0.347640000000     0.201760000000    -0.0562719  
C1293    C      0.115220000000     0.352240000000     0.182960000000     0.0126295  
C1294    C      0.132830000000     0.362270000000     0.180520000000    -0.0728657  
C1295    C      0.143640000000     0.367380000000     0.197210000000     0.0125512  
C1296    C      0.136910000000     0.362790000000     0.215940000000    -0.0563893  
C1297    C      0.095920000000     0.171180000000     0.885630000000    -0.056152   
C1298    C      0.093330000000     0.187500000000     0.873680000000     0.0217217  
C1299    C      0.086920000000     0.184910000000     0.854280000000    -0.0564164  
C1300    C      0.083170000000     0.166510000000     0.846990000000     0.0126172  
C1301    C      0.085680000000     0.150200000000     0.858910000000    -0.0730752  
C1302    C      0.092160000000     0.152690000000     0.878300000000     0.0124442  
C1303    C      0.096970000000     0.207260000000     0.881280000000     0.0215177  
C1304    C      0.090770000000     0.212710000000     0.900140000000    -0.0558707  
C1305    C      0.092940000000     0.231760000000     0.906560000000     0.0119431  
C1306    C      0.101320000000     0.245700000000     0.894220000000    -0.0719699  
C1307    C      0.108030000000     0.240090000000     0.875620000000     0.0121782  
C1308    C      0.105930000000     0.221110000000     0.869250000000    -0.0562267  
C1309    C      0.118780000000     0.318830000000     0.005260000000    -0.0557798  
C1310    C      0.115500000000     0.338320000000     0.009890000000     0.0215681  
C1311    C      0.108320000000     0.350640000000     0.995230000000    -0.0563541  
C1312    C      0.105140000000     0.343850000000     0.976240000000     0.0122579  
C1313    C      0.108980000000     0.324540000000     0.971440000000    -0.0720665  
C1314    C      0.115540000000     0.312010000000     0.986210000000     0.0120012  
C1315    C      0.120430000000     0.346050000000     0.029610000000     0.0217427  
C1316    C      0.116210000000     0.335560000000     0.046730000000    -0.0561674  
C1317    C      0.121420000000     0.342780000000     0.065170000000     0.0124869  
C1318    C      0.131020000000     0.360590000000     0.066820000000    -0.0725851  
C1319    C      0.135050000000     0.371130000000     0.049720000000     0.0124349  
C1320    C      0.129830000000     0.363950000000     0.031350000000    -0.0563087  
C1321    C      0.014740000000     0.334270000000     0.892320000000    -0.05646    
C1322    C      0.010390000000     0.332080000000     0.872280000000     0.0223404  
C1323    C      0.025490000000     0.326790000000     0.859390000000    -0.0561238  
C1324    C      0.044300000000     0.323270000000     0.866470000000     0.0129983  
C1325    C      0.048320000000     0.324700000000     0.886600000000    -0.073616   
C1326    C      0.033420000000     0.330450000000     0.899410000000     0.0134475  
C1327    C      0.990040000000     0.334630000000     0.865080000000     0.0212877  
C1328    C      0.974190000000     0.328880000000     0.876780000000    -0.0558569  
C1329    C      0.955090000000     0.331100000000     0.870150000000     0.0123093  
C1330    C      0.951330000000     0.338850000000     0.851520000000    -0.0723029  
C1331    C      0.967070000000     0.344490000000     0.839690000000     0.0123882  
C1332    C      0.986220000000     0.342520000000     0.846440000000    -0.0556281  
C1333    C      0.195190000000     0.323410000000     0.886540000000    -0.0564154  
C1334    C      0.198800000000     0.343340000000     0.885840000000     0.0217593  
C1335    C      0.182940000000     0.356090000000     0.887450000000    -0.0558848  
C1336    C      0.164050000000     0.349050000000     0.890450000000     0.012534   
C1337    C      0.160710000000     0.329140000000     0.892050000000    -0.0731876  
C1338    C      0.176420000000     0.316410000000     0.889750000000     0.0131184  
C1339    C      0.219150000000     0.350630000000     0.884300000000     0.0218076  
C1340    C      0.234280000000     0.341080000000     0.894230000000    -0.056291   
C1341    C      0.253460000000     0.347500000000     0.892710000000     0.01274    
C1342    C      0.258020000000     0.363790000000     0.881420000000    -0.072998   
C1343    C      0.242940000000     0.373630000000     0.871740000000     0.0126458  
C1344    C      0.223680000000     0.367070000000     0.873120000000    -0.0560458  
Cd1      Cd     0.104350000000     0.306420000000     0.910410000000     0.507298   
Cd2      Cd     0.152410000000     0.381770000000     0.123040000000     0.508205   
Cd3      Cd     0.108170000000     0.802290000000     0.079680000000     0.50711    
Cd4      Cd     0.071870000000     0.591820000000     0.157320000000     0.507128   
Cd5      Cd     0.081440000000     0.338560000000     0.338700000000     0.507729   
Cd6      Cd     0.364960000000     0.303210000000     0.087790000000     0.507335   
Cd7      Cd     0.859400000000     0.630550000000     0.081840000000     0.507906   
Cd8      Cd     0.644310000000     0.062070000000     0.871760000000     0.506918   
Cd9      Cd     0.567400000000     0.090470000000     0.659880000000     0.506703   
Cd10     Cd     0.355710000000     0.122320000000     0.584720000000     0.507096   
Cd11     Cd     0.072090000000     0.836250000000     0.661330000000     0.507591   
Cd12     Cd     0.645240000000     0.882300000000     0.621620000000     0.507528   
Cd13     Cd     0.573810000000     0.848660000000     0.838570000000     0.507594   
Cd14     Cd     0.894820000000     0.843400000000     0.154610000000     0.507465   
Cd15     Cd     0.576780000000     0.591840000000     0.345330000000     0.507109   
Cd16     Cd     0.654340000000     0.383800000000     0.378250000000     0.506575   
Cd17     Cd     0.646040000000     0.559210000000     0.126850000000     0.50749    
Cd18     Cd     0.576900000000     0.345370000000     0.165420000000     0.507144   
Cd19     Cd     0.817600000000     0.880920000000     0.369590000000     0.50815    
Cd20     Cd     0.394470000000     0.839250000000     0.335190000000     0.507165   
Cd21     Cd     0.607150000000     0.803800000000     0.410760000000     0.506703   
Cd22     Cd     0.391370000000     0.333770000000     0.662700000000     0.507497   
Cd23     Cd     0.606960000000     0.301200000000     0.588150000000     0.507466   
Cd24     Cd     0.108270000000     0.625330000000     0.584500000000     0.507916   
Cd25     Cd     0.150020000000     0.553010000000     0.370340000000     0.507575   
Cd26     Cd     0.361380000000     0.628940000000     0.417790000000     0.507689   
Cd27     Cd     0.318500000000     0.546430000000     0.628100000000     0.507385   
Cd28     Cd     0.152410000000     0.887940000000     0.870470000000     0.506237   
Cd29     Cd     0.318940000000     0.381310000000     0.876820000000     0.507149   
Cd30     Cd     0.359100000000     0.809390000000     0.910650000000     0.506988   
Cd31     Cd     0.390520000000     0.594430000000     0.842800000000     0.50729    
Cd32     Cd     0.857530000000     0.134840000000     0.911140000000     0.507337   
Cd33     Cd     0.605610000000     0.636370000000     0.913290000000     0.507853   
Cd34     Cd     0.857870000000     0.804300000000     0.583360000000     0.507737   
Cd35     Cd     0.891640000000     0.590500000000     0.652340000000     0.507822   
Cd36     Cd     0.815430000000     0.555320000000     0.868090000000     0.507877   
Cd37     Cd     0.891200000000     0.343730000000     0.831400000000     0.507289   
Cd38     Cd     0.863850000000     0.306600000000     0.407500000000     0.50744    
Cd39     Cd     0.814640000000     0.383190000000     0.618360000000     0.506755   
Cd40     Cd     0.314800000000     0.886450000000     0.123390000000     0.507622   
Cd41     Cd     0.892860000000     0.092410000000     0.337020000000     0.508263   
Cd42     Cd     0.069520000000     0.093910000000     0.835310000000     0.506934   
Cd43     Cd     0.109110000000     0.124530000000     0.409140000000     0.507492   
Cd44     Cd     0.145410000000     0.045750000000     0.622680000000     0.507513   
Cd45     Cd     0.818700000000     0.054930000000     0.120980000000     0.507795   
Cd46     Cd     0.610350000000     0.139900000000     0.081680000000     0.506215   
Cd47     Cd     0.317260000000     0.045830000000     0.371840000000     0.506338   
Cd48     Cd     0.401990000000     0.091540000000     0.162580000000     0.507447   
H1       H      0.379190000000     0.048300000000     0.284860000000     0.0501125  
H2       H      0.365460000000     0.039690000000     0.316590000000     0.0467509  
H3       H      0.333700000000     0.093380000000     0.317840000000     0.0468223  
H4       H      0.347740000000     0.102180000000     0.286170000000     0.0499436  
H5       H      0.343980000000     0.091310000000     0.252380000000     0.0501554  
H6       H      0.354980000000     0.096730000000     0.218880000000     0.0469949  
H7       H      0.412080000000     0.075430000000     0.234280000000     0.047368   
H8       H      0.401140000000     0.070310000000     0.267960000000     0.0499062  
H9       H      0.491150000000     0.094580000000     0.104330000000     0.0501742  
H10      H      0.457750000000     0.088910000000     0.114820000000     0.0470157  
H11      H      0.473820000000     0.102480000000     0.174490000000     0.0474271  
H12      H      0.507400000000     0.107840000000     0.164030000000     0.0499179  
H13      H      0.524730000000     0.131980000000     0.144770000000     0.0501416  
H14      H      0.556350000000     0.141470000000     0.131780000000     0.0466553  
H15      H      0.555890000000     0.092110000000     0.093200000000     0.0469345  
H16      H      0.524370000000     0.082410000000     0.106470000000     0.0500077  
H17      H      0.712340000000     0.055610000000     0.108920000000     0.0500673  
H18      H      0.745950000000     0.044540000000     0.112510000000     0.0473339  
H19      H      0.764260000000     0.102950000000     0.124190000000     0.0470257  
H20      H      0.730860000000     0.114000000000     0.120340000000     0.0502781  
H21      H      0.698550000000     0.112710000000     0.135260000000     0.049915   
H22      H      0.666910000000     0.126690000000     0.127320000000     0.0470489  
H23      H      0.662110000000     0.088600000000     0.077450000000     0.0469126  
H24      H      0.693840000000     0.074860000000     0.085200000000     0.050166   
H25      H      0.153870000000     0.085180000000     0.524250000000     0.0503454  
H26      H      0.160710000000     0.070540000000     0.555930000000     0.0466958  
H27      H      0.100430000000     0.077560000000     0.572630000000     0.0466857  
H28      H      0.093590000000     0.092350000000     0.540730000000     0.0503407  
H29      H      0.092960000000     0.081420000000     0.505560000000     0.0503129  
H30      H      0.087990000000     0.092580000000     0.471980000000     0.0470427  
H31      H      0.139530000000     0.128000000000     0.476410000000     0.0468776  
H32      H      0.144430000000     0.116890000000     0.510030000000     0.0501063  
H33      H      0.182420000000     0.050680000000     0.388230000000     0.0500109  
H34      H      0.151410000000     0.066090000000     0.396220000000     0.0464484  
H35      H      0.173470000000     0.120270000000     0.374360000000     0.0469258  
H36      H      0.204420000000     0.104990000000     0.366660000000     0.0505263  
H37      H      0.220720000000     0.081340000000     0.345790000000     0.0500548  
H38      H      0.254460000000     0.070610000000     0.343270000000     0.0471445  
H39      H      0.249150000000     0.041630000000     0.399080000000     0.0467167  
H40      H      0.215540000000     0.052610000000     0.401740000000     0.0502313  
H41      H      0.113500000000     0.101920000000     0.737970000000     0.050467   
H42      H      0.103350000000     0.108890000000     0.771540000000     0.0471452  
H43      H      0.063950000000     0.060390000000     0.769890000000     0.0466122  
H44      H      0.074110000000     0.053480000000     0.736290000000     0.050318   
H45      H      0.105220000000     0.041590000000     0.721460000000     0.0502827  
H46      H      0.118890000000     0.033050000000     0.689670000000     0.0466138  
H47      H      0.114760000000     0.092440000000     0.671210000000     0.0467837  
H48      H      0.101010000000     0.101000000000     0.703180000000     0.0504003  
H49      H      0.827610000000     0.063110000000     0.227090000000     0.0499311  
H50      H      0.815290000000     0.056660000000     0.194300000000     0.0468084  
H51      H      0.864880000000     0.086060000000     0.169320000000     0.0474705  
H52      H      0.877070000000     0.092860000000     0.202270000000     0.0501934  
H53      H      0.890920000000     0.075750000000     0.230580000000     0.0500534  
H54      H      0.902720000000     0.080410000000     0.264090000000     0.0471848  
H55      H      0.844220000000     0.093980000000     0.282880000000     0.0473094  
H56      H      0.832560000000     0.089740000000     0.249490000000     0.049819   
H57      H      0.027000000000     0.087070000000     0.351450000000     0.0504211  
H58      H      0.060060000000     0.093190000000     0.363340000000     0.046891   
H59      H      0.036600000000     0.126880000000     0.411100000000     0.0471285  
H60      H      0.003810000000     0.121060000000     0.399100000000     0.0501757  
H61      H      0.980750000000     0.094730000000     0.396230000000     0.0498638  
H62      H      0.947280000000     0.091230000000     0.385180000000     0.0473945  
H63      H      0.965620000000     0.100610000000     0.325330000000     0.04725    
H64      H      0.999260000000     0.104490000000     0.336500000000     0.0499234  
H65      H      0.376540000000     0.971010000000     0.112170000000     0.0497608  
H66      H      0.362800000000     0.938890000000     0.108170000000     0.0466478  
H67      H      0.308980000000     0.958230000000     0.134400000000     0.0475375  
H68      H      0.322870000000     0.990310000000     0.138740000000     0.0499971  
H69      H      0.335000000000     0.019290000000     0.122140000000     0.0502369  
H70      H      0.349610000000     0.050080000000     0.131450000000     0.0473021  
H71      H      0.402070000000     0.020460000000     0.149150000000     0.0471437  
H72      H      0.387410000000     0.989800000000     0.140190000000     0.0495593  
H73      H      0.864930000000     0.193470000000     0.339690000000     0.0498251  
H74      H      0.870810000000     0.160660000000     0.328700000000     0.0460795  
H75      H      0.877980000000     0.142330000000     0.388770000000     0.0462105  
H76      H      0.873040000000     0.175410000000     0.399840000000     0.0497974  
H77      H      0.851340000000     0.201660000000     0.403910000000     0.0497657  
H78      H      0.849910000000     0.235200000000     0.414640000000     0.0470403  
H79      H      0.880910000000     0.252580000000     0.362460000000     0.0464926  
H80      H      0.883150000000     0.219200000000     0.352160000000     0.0497158  
H81      H      0.868970000000     0.354770000000     0.502720000000     0.050335   
H82      H      0.875750000000     0.345210000000     0.468970000000     0.0469212  
H83      H      0.838410000000     0.295590000000     0.475930000000     0.0471929  
H84      H      0.831700000000     0.305150000000     0.509740000000     0.0500842  
H85      H      0.813370000000     0.332470000000     0.524640000000     0.0503262  
H86      H      0.803780000000     0.345930000000     0.556200000000     0.0463059  
H87      H      0.864040000000     0.358280000000     0.569370000000     0.0465276  
H88      H      0.873640000000     0.344710000000     0.537700000000     0.0502438  
H89      H      0.893890000000     0.363640000000     0.726150000000     0.0503222  
H90      H      0.903770000000     0.358840000000     0.760240000000     0.0472725  
H91      H      0.848030000000     0.332730000000     0.772740000000     0.0466924  
H92      H      0.838210000000     0.337530000000     0.738690000000     0.0504136  
H93      H      0.846250000000     0.327380000000     0.703980000000     0.0502281  
H94      H      0.833010000000     0.335900000000     0.671800000000     0.0465493  
H95      H      0.855560000000     0.393640000000     0.678380000000     0.0462864  
H96      H      0.868770000000     0.385100000000     0.710400000000     0.0505585  
H97      H      0.871580000000     0.466900000000     0.875270000000     0.0498438  
H98      H      0.860200000000     0.499860000000     0.878820000000     0.0472057  
H99      H      0.805360000000     0.484280000000     0.852160000000     0.0468811  
H100     H      0.816990000000     0.451220000000     0.848110000000     0.0500651  
H101     H      0.826540000000     0.421640000000     0.865100000000     0.0500924  
H102     H      0.839460000000     0.389560000000     0.857860000000     0.0469883  
H103     H      0.894630000000     0.414940000000     0.841750000000     0.0469191  
H104     H      0.881680000000     0.446800000000     0.848510000000     0.0500027  
H105     H      0.884940000000     0.598890000000     0.759720000000     0.0499018  
H106     H      0.896640000000     0.601880000000     0.725980000000     0.0466513  
H107     H      0.849130000000     0.566130000000     0.706070000000     0.0464542  
H108     H      0.837920000000     0.562500000000     0.739610000000     0.0498742  
H109     H      0.822440000000     0.580120000000     0.764680000000     0.0499152  
H110     H      0.810100000000     0.574090000000     0.797500000000     0.0465415  
H111     H      0.868950000000     0.571600000000     0.819660000000     0.0463498  
H112     H      0.881450000000     0.576840000000     0.786530000000     0.049839   
H113     H      0.824820000000     0.517240000000     0.615180000000     0.0500733  
H114     H      0.838930000000     0.548460000000     0.623730000000     0.0473787  
H115     H      0.895490000000     0.521820000000     0.629560000000     0.0466603  
H116     H      0.881390000000     0.490710000000     0.621230000000     0.0502652  
H117     H      0.865870000000     0.472050000000     0.594910000000     0.049893   
H118     H      0.853780000000     0.439050000000     0.593280000000     0.0466816  
H119     H      0.806230000000     0.454260000000     0.631770000000     0.0470754  
H120     H      0.818470000000     0.487190000000     0.633590000000     0.050306   
H121     H      0.850350000000     0.715940000000     0.640140000000     0.0497636  
H122     H      0.848070000000     0.749240000000     0.629290000000     0.0472715  
H123     H      0.870690000000     0.733030000000     0.572520000000     0.0470838  
H124     H      0.873470000000     0.699670000000     0.583580000000     0.0500268  
H125     H      0.855250000000     0.671150000000     0.593440000000     0.0500883  
H126     H      0.861820000000     0.638470000000     0.605020000000     0.0472314  
H127     H      0.882130000000     0.661440000000     0.660240000000     0.04694    
H128     H      0.876030000000     0.693950000000     0.648570000000     0.049927   
H129     H      0.709300000000     0.624880000000     0.894750000000     0.0500225  
H130     H      0.677660000000     0.638410000000     0.902810000000     0.046969   
H131     H      0.649560000000     0.587390000000     0.880120000000     0.047349   
H132     H      0.681400000000     0.573920000000     0.871670000000     0.0501174  
H133     H      0.710400000000     0.561200000000     0.888330000000     0.0501121  
H134     H      0.743160000000     0.548310000000     0.883300000000     0.0471442  
H135     H      0.762220000000     0.603940000000     0.862410000000     0.0473078  
H136     H      0.729540000000     0.616650000000     0.867020000000     0.0499128  
H137     H      0.843590000000     0.131040000000     0.017040000000     0.0502848  
H138     H      0.847540000000     0.143780000000     0.983930000000     0.0474915  
H139     H      0.876920000000     0.091420000000     0.966660000000     0.0465836  
H140     H      0.873260000000     0.078850000000     0.999820000000     0.0498913  
H141     H      0.845050000000     0.067390000000     0.018190000000     0.0502677  
H142     H      0.835340000000     0.053420000000     0.049390000000     0.0467949  
H143     H      0.849900000000     0.106630000000     0.078790000000     0.0471551  
H144     H      0.859920000000     0.120590000000     0.047430000000     0.0501572  
H145     H      0.869750000000     0.239260000000     0.906340000000     0.0502698  
H146     H      0.866530000000     0.206610000000     0.919190000000     0.0475845  
H147     H      0.841500000000     0.188190000000     0.864160000000     0.0467243  
H148     H      0.844480000000     0.220880000000     0.851440000000     0.0498464  
H149     H      0.872140000000     0.240970000000     0.841620000000     0.0500171  
H150     H      0.880270000000     0.272430000000     0.828170000000     0.0467475  
H151     H      0.860180000000     0.299570000000     0.881480000000     0.047341   
H152     H      0.851800000000     0.267970000000     0.894900000000     0.0501126  
H153     H      0.967100000000     0.121960000000     0.834950000000     0.0502175  
H154     H      0.000770000000     0.116420000000     0.824830000000     0.0471657  
H155     H      0.009000000000     0.078470000000     0.874370000000     0.0474696  
H156     H      0.975270000000     0.083950000000     0.884370000000     0.0504851  
H157     H      0.939950000000     0.078780000000     0.872670000000     0.0505581  
H158     H      0.908020000000     0.087270000000     0.886260000000     0.046572   
H159     H      0.921350000000     0.147610000000     0.878520000000     0.0461091  
H160     H      0.953000000000     0.139120000000     0.864850000000     0.05051    
H161     H      0.525170000000     0.597180000000     0.854400000000     0.0500838  
H162     H      0.557920000000     0.604970000000     0.866080000000     0.0473202  
H163     H      0.533310000000     0.629740000000     0.918650000000     0.0470235  
H164     H      0.500750000000     0.622350000000     0.906880000000     0.0499318  
H165     H      0.479500000000     0.595350000000     0.900790000000     0.049862   
H166     H      0.446100000000     0.590770000000     0.889870000000     0.0473269  
H167     H      0.462350000000     0.608500000000     0.831380000000     0.0471503  
H168     H      0.495820000000     0.613520000000     0.842460000000     0.0500571  
H169     H      0.315930000000     0.820910000000     0.007780000000     0.0500295  
H170     H      0.322330000000     0.809660000000     0.974490000000     0.0467752  
H171     H      0.379600000000     0.835340000000     0.976720000000     0.04697    
H172     H      0.373120000000     0.846660000000     0.010010000000     0.0502533  
H173     H      0.366710000000     0.835310000000     0.044510000000     0.0502911  
H174     H      0.359030000000     0.850000000000     0.076250000000     0.0469392  
H175     H      0.303170000000     0.868100000000     0.053670000000     0.0467545  
H176     H      0.310840000000     0.853530000000     0.022140000000     0.050213   
H177     H      0.348010000000     0.703830000000     0.909600000000     0.0498328  
H178     H      0.346310000000     0.737550000000     0.919770000000     0.04662    
H179     H      0.375450000000     0.754480000000     0.866370000000     0.0467412  
H180     H      0.377900000000     0.720970000000     0.856590000000     0.0499057  
H181     H      0.359580000000     0.694760000000     0.845120000000     0.0498659  
H182     H      0.365820000000     0.661940000000     0.834400000000     0.0463847  
H183     H      0.375520000000     0.644660000000     0.894430000000     0.0463061  
H184     H      0.370150000000     0.677780000000     0.905190000000     0.0498267  
H185     H      0.323960000000     0.486610000000     0.889800000000     0.0498841  
H186     H      0.313000000000     0.453130000000     0.891850000000     0.0467837  
H187     H      0.361840000000     0.435490000000     0.856220000000     0.0468207  
H188     H      0.372350000000     0.468730000000     0.853580000000     0.0499669  
H189     H      0.386630000000     0.493750000000     0.872100000000     0.0498857  
H190     H      0.398000000000     0.526280000000     0.865620000000     0.0464764  
H191     H      0.338510000000     0.546050000000     0.861680000000     0.0464171  
H192     H      0.327020000000     0.513210000000     0.867400000000     0.0499039  
H193     H      0.112060000000     0.981880000000     0.895680000000     0.0499072  
H194     H      0.123760000000     0.948790000000     0.898160000000     0.0472731  
H195     H      0.155680000000     0.955930000000     0.844040000000     0.0466436  
H196     H      0.143770000000     0.988940000000     0.841450000000     0.0499001  
H197     H      0.144330000000     0.021510000000     0.856170000000     0.0500928  
H198     H      0.128580000000     0.052270000000     0.848740000000     0.0465813  
H199     H      0.073180000000     0.028540000000     0.866530000000     0.0476927  
H200     H      0.088820000000     0.997890000000     0.873740000000     0.049986   
H201     H      0.253370000000     0.882050000000     0.902230000000     0.0499837  
H202     H      0.219860000000     0.893120000000     0.898970000000     0.0468079  
H203     H      0.216330000000     0.866480000000     0.841820000000     0.0471907  
H204     H      0.250000000000     0.855680000000     0.844940000000     0.0498943  
H205     H      0.265570000000     0.831130000000     0.865130000000     0.0505372  
H206     H      0.296140000000     0.815330000000     0.873330000000     0.0469342  
H207     H      0.317460000000     0.868310000000     0.898700000000     0.0463396  
H208     H      0.286880000000     0.884250000000     0.890200000000     0.0497791  
H209     H      0.375810000000     0.590390000000     0.707460000000     0.0501581  
H210     H      0.364050000000     0.581530000000     0.674790000000     0.0469832  
H211     H      0.316400000000     0.550210000000     0.701150000000     0.0474022  
H212     H      0.328250000000     0.558770000000     0.733590000000     0.0500401  
H213     H      0.331350000000     0.586830000000     0.754630000000     0.0499585  
H214     H      0.342430000000     0.592850000000     0.787950000000     0.0473398  
H215     H      0.401730000000     0.581620000000     0.770180000000     0.0472869  
H216     H      0.390540000000     0.575230000000     0.736740000000     0.0500394  
H217     H      0.331990000000     0.622120000000     0.521170000000     0.0497718  
H218     H      0.336240000000     0.634200000000     0.487780000000     0.0464713  
H219     H      0.378540000000     0.589520000000     0.476560000000     0.046935   
H220     H      0.374900000000     0.577910000000     0.509990000000     0.0497317  
H221     H      0.351080000000     0.560760000000     0.527940000000     0.0499862  
H222     H      0.343720000000     0.546530000000     0.559560000000     0.0473827  
H223     H      0.338030000000     0.603270000000     0.584900000000     0.0464964  
H224     H      0.346080000000     0.617670000000     0.553180000000     0.0497868  
H225     H      0.262420000000     0.622080000000     0.380760000000     0.0498962  
H226     H      0.294430000000     0.633830000000     0.390030000000     0.0466833  
H227     H      0.313600000000     0.575470000000     0.400340000000     0.046089   
H228     H      0.281150000000     0.563630000000     0.391800000000     0.0499372  
H229     H      0.257080000000     0.559050000000     0.366590000000     0.0498719  
H230     H      0.223680000000     0.547870000000     0.361480000000     0.046891   
H231     H      0.202000000000     0.598390000000     0.391300000000     0.0469103  
H232     H      0.235090000000     0.609170000000     0.397020000000     0.0498683  
H233     H      0.129390000000     0.558950000000     0.474790000000     0.0498248  
H234     H      0.137510000000     0.546870000000     0.442350000000     0.0467775  
H235     H      0.116660000000     0.599820000000     0.416510000000     0.0472515  
H236     H      0.108090000000     0.611800000000     0.449090000000     0.0501063  
H237     H      0.124830000000     0.622780000000     0.478510000000     0.0500786  
H238     H      0.120750000000     0.634460000000     0.512030000000     0.0474391  
H239     H      0.098940000000     0.578650000000     0.529430000000     0.046735   
H240     H      0.102550000000     0.567140000000     0.495900000000     0.0497288  
H241     H      0.998060000000     0.578000000000     0.648090000000     0.0497605  
H242     H      0.964060000000     0.575190000000     0.658460000000     0.046722   
H243     H      0.946690000000     0.612270000000     0.610700000000     0.0468075  
H244     H      0.980420000000     0.615680000000     0.600830000000     0.0497905  
H245     H      0.006050000000     0.598410000000     0.586030000000     0.0499775  
H246     H      0.039070000000     0.605400000000     0.575430000000     0.0465099  
H247     H      0.058110000000     0.606540000000     0.635770000000     0.0462466  
H248     H      0.024750000000     0.600330000000     0.646550000000     0.0499911  
H249     H      0.208590000000     0.592280000000     0.581500000000     0.0506161  
H250     H      0.177450000000     0.607280000000     0.573750000000     0.0464153  
H251     H      0.153770000000     0.586690000000     0.628590000000     0.0466664  
H252     H      0.185220000000     0.571800000000     0.636440000000     0.0506719  
H253     H      0.220250000000     0.584850000000     0.643220000000     0.050755   
H254     H      0.253430000000     0.573600000000     0.649530000000     0.0465268  
H255     H      0.254620000000     0.546430000000     0.592530000000     0.0465614  
H256     H      0.221560000000     0.557840000000     0.586230000000     0.0504255  
H257     H      0.710510000000     0.377450000000     0.598510000000     0.0500977  
H258     H      0.743830000000     0.389480000000     0.599970000000     0.0472988  
H259     H      0.756130000000     0.350550000000     0.647810000000     0.0465518  
H260     H      0.722700000000     0.338800000000     0.646630000000     0.0497442  
H261     H      0.705240000000     0.318730000000     0.623460000000     0.0501911  
H262     H      0.674330000000     0.303320000000     0.616090000000     0.0473412  
H263     H      0.647890000000     0.359090000000     0.607080000000     0.0466627  
H264     H      0.678920000000     0.374620000000     0.614830000000     0.0498786  
H265     H      0.389930000000     0.356690000000     0.767820000000     0.0500641  
H266     H      0.401450000000     0.350970000000     0.734420000000     0.0471207  
H267     H      0.345270000000     0.327410000000     0.719040000000     0.0473251  
H268     H      0.333930000000     0.332720000000     0.752420000000     0.049869   
H269     H      0.325450000000     0.360300000000     0.772280000000     0.0499409  
H270     H      0.313230000000     0.368880000000     0.804600000000     0.0468687  
H271     H      0.367300000000     0.349970000000     0.830630000000     0.0473202  
H272     H      0.379440000000     0.341000000000     0.798190000000     0.0501056  
H273     H      0.497100000000     0.316850000000     0.662490000000     0.050014   
H274     H      0.463530000000     0.320880000000     0.673790000000     0.0471218  
H275     H      0.446670000000     0.339380000000     0.615730000000     0.0474154  
H276     H      0.480100000000     0.335780000000     0.604610000000     0.0499362  
H277     H      0.501810000000     0.309260000000     0.597950000000     0.0499791  
H278     H      0.534410000000     0.303400000000     0.585510000000     0.0472631  
H279     H      0.558910000000     0.327930000000     0.638260000000     0.0467783  
H280     H      0.526050000000     0.334190000000     0.650630000000     0.0501686  
H281     H      0.385140000000     0.432880000000     0.628380000000     0.0498278  
H282     H      0.396730000000     0.400430000000     0.634940000000     0.0463302  
H283     H      0.338400000000     0.382830000000     0.650270000000     0.0460787  
H284     H      0.326830000000     0.415610000000     0.644650000000     0.0497211  
H285     H      0.320170000000     0.440700000000     0.622010000000     0.0498681  
H286     H      0.309450000000     0.474190000000     0.619810000000     0.046743   
H287     H      0.364590000000     0.492930000000     0.643490000000     0.0465375  
H288     H      0.374980000000     0.459670000000     0.646530000000     0.0499131  
H289     H      0.383560000000     0.881320000000     0.237560000000     0.0501962  
H290     H      0.395140000000     0.874490000000     0.270700000000     0.0464485  
H291     H      0.361330000000     0.822010000000     0.271420000000     0.0469002  
H292     H      0.349790000000     0.828870000000     0.238240000000     0.0504868  
H293     H      0.362030000000     0.832390000000     0.203150000000     0.050458   
H294     H      0.347710000000     0.840640000000     0.171330000000     0.0468982  
H295     H      0.336310000000     0.898300000000     0.192220000000     0.0465453  
H296     H      0.350630000000     0.890070000000     0.223820000000     0.0502414  
H297     H      0.488540000000     0.850650000000     0.383850000000     0.0504822  
H298     H      0.454590000000     0.855190000000     0.374300000000     0.04713    
H299     H      0.464130000000     0.820260000000     0.322740000000     0.0468124  
H300     H      0.498100000000     0.815690000000     0.332380000000     0.0503107  
H301     H      0.513410000000     0.797670000000     0.360790000000     0.0505534  
H302     H      0.545250000000     0.789850000000     0.374460000000     0.0461414  
H303     H      0.555300000000     0.850120000000     0.386580000000     0.046343   
H304     H      0.523270000000     0.857920000000     0.372930000000     0.050381   
H305     H      0.377430000000     0.733740000000     0.413910000000     0.050036   
H306     H      0.373470000000     0.700950000000     0.426500000000     0.0469253  
H307     H      0.356280000000     0.681760000000     0.368770000000     0.0472716  
H308     H      0.359760000000     0.714390000000     0.356370000000     0.0499434  
H309     H      0.386440000000     0.735760000000     0.349360000000     0.0499644  
H310     H      0.392330000000     0.767480000000     0.335610000000     0.0473773  
H311     H      0.366370000000     0.793750000000     0.386750000000     0.046622   
H312     H      0.360040000000     0.761750000000     0.400430000000     0.0501169  
H313     H      0.321870000000     0.944800000000     0.342920000000     0.0500531  
H314     H      0.311050000000     0.978160000000     0.345570000000     0.0465574  
H315     H      0.342190000000     0.983820000000     0.400320000000     0.0470702  
H316     H      0.352750000000     0.950370000000     0.397810000000     0.0499245  
H317     H      0.375980000000     0.934190000000     0.376210000000     0.0503165  
H318     H      0.391190000000     0.903490000000     0.368490000000     0.0474819  
H319     H      0.335760000000     0.881240000000     0.348900000000     0.0464627  
H320     H      0.320410000000     0.912060000000     0.356900000000     0.049836   
H321     H      0.875780000000     0.966710000000     0.352360000000     0.0497778  
H322     H      0.864780000000     0.933580000000     0.354800000000     0.0463531  
H323     H      0.811190000000     0.952710000000     0.381590000000     0.046909   
H324     H      0.822570000000     0.986000000000     0.380050000000     0.0496918  
H325     H      0.828450000000     0.011440000000     0.357850000000     0.0496907  
H326     H      0.840210000000     0.044120000000     0.352180000000     0.0463391  
H327     H      0.899040000000     0.025360000000     0.363640000000     0.0462318  
H328     H      0.887310000000     0.992970000000     0.370320000000     0.0489583  
H329     H      0.713050000000     0.882860000000     0.388880000000     0.0502859  
H330     H      0.746830000000     0.892840000000     0.384060000000     0.0473647  
H331     H      0.759860000000     0.837460000000     0.358290000000     0.0466226  
H332     H      0.726080000000     0.827540000000     0.363100000000     0.050472   
H333     H      0.691330000000     0.835240000000     0.352650000000     0.0503317  
H334     H      0.659520000000     0.821970000000     0.361690000000     0.0464115  
H335     H      0.666420000000     0.844670000000     0.420270000000     0.0460994  
H336     H      0.698010000000     0.857930000000     0.411220000000     0.0506116  
H337     H      0.852410000000     0.815740000000     0.447370000000     0.0501652  
H338     H      0.844400000000     0.828760000000     0.414980000000     0.0468648  
H339     H      0.829760000000     0.883360000000     0.441580000000     0.0469802  
H340     H      0.837320000000     0.870340000000     0.473720000000     0.0500254  
H341     H      0.864580000000     0.859850000000     0.493230000000     0.0498858  
H342     H      0.868630000000     0.848530000000     0.526730000000     0.0472401  
H343     H      0.840410000000     0.794950000000     0.511540000000     0.0469916  
H344     H      0.835910000000     0.806530000000     0.477970000000     0.050116   
H345     H      0.581720000000     0.240820000000     0.090690000000     0.0499637  
H346     H      0.583880000000     0.207720000000     0.078940000000     0.0467736  
H347     H      0.639230000000     0.201210000000     0.108310000000     0.0472997  
H348     H      0.637210000000     0.234420000000     0.119790000000     0.0499249  
H349     H      0.616980000000     0.250630000000     0.144080000000     0.0503686  
H350     H      0.610130000000     0.281230000000     0.160030000000     0.0473798  
H351     H      0.588430000000     0.304090000000     0.105310000000     0.0464676  
H352     H      0.595570000000     0.273410000000     0.089210000000     0.0498013  
H353     H      0.648570000000     0.454430000000     0.142100000000     0.0500866  
H354     H      0.658980000000     0.487780000000     0.137160000000     0.0472253  
H355     H      0.599580000000     0.503970000000     0.124350000000     0.0473027  
H356     H      0.589310000000     0.470750000000     0.128890000000     0.0500452  
H357     H      0.585890000000     0.449340000000     0.156730000000     0.0500707  
H358     H      0.574470000000     0.417040000000     0.164080000000     0.0474324  
H359     H      0.623780000000     0.393040000000     0.133230000000     0.0466364  
H360     H      0.635120000000     0.425640000000     0.125540000000     0.0501903  
H361     H      0.599500000000     0.630610000000     0.020980000000     0.0498146  
H362     H      0.596220000000     0.642240000000     0.987290000000     0.0468159  
H363     H      0.623490000000     0.590210000000     0.966070000000     0.0467897  
H364     H      0.627520000000     0.578980000000     0.999490000000     0.0498462  
H365     H      0.610410000000     0.566750000000     0.026520000000     0.0498066  
H366     H      0.618270000000     0.554570000000     0.059000000000     0.0463908  
H367     H      0.629940000000     0.612470000000     0.078850000000     0.0462647  
H368     H      0.622950000000     0.624710000000     0.046020000000     0.049821   
H369     H      0.758880000000     0.380860000000     0.395990000000     0.0500839  
H370     H      0.725310000000     0.392160000000     0.394780000000     0.0474068  
H371     H      0.712980000000     0.351570000000     0.348390000000     0.0465     
H372     H      0.746690000000     0.340590000000     0.349250000000     0.0496384  
H373     H      0.765060000000     0.321560000000     0.372340000000     0.0502322  
H374     H      0.796360000000     0.306970000000     0.379700000000     0.0469246  
H375     H      0.821630000000     0.363440000000     0.387410000000     0.046669   
H376     H      0.790220000000     0.378160000000     0.379590000000     0.0499178  
H377     H      0.659130000000     0.337140000000     0.473980000000     0.0502175  
H378     H      0.667770000000     0.351450000000     0.442560000000     0.0464504  
H379     H      0.606960000000     0.353520000000     0.426470000000     0.0464503  
H380     H      0.598310000000     0.339050000000     0.458010000000     0.0503187  
H381     H      0.599400000000     0.349550000000     0.493100000000     0.0503908  
H382     H      0.592560000000     0.338630000000     0.526420000000     0.046963   
H383     H      0.638470000000     0.296340000000     0.521590000000     0.046896   
H384     H      0.645210000000     0.307210000000     0.488220000000     0.0500811  
H385     H      0.598440000000     0.384620000000     0.287290000000     0.0504681  
H386     H      0.611600000000     0.393120000000     0.319340000000     0.0463478  
H387     H      0.637720000000     0.336700000000     0.324040000000     0.0466879  
H388     H      0.624520000000     0.328210000000     0.291830000000     0.0503264  
H389     H      0.631420000000     0.339670000000     0.257310000000     0.0504313  
H390     H      0.621440000000     0.335220000000     0.223250000000     0.0470595  
H391     H      0.564430000000     0.357710000000     0.237160000000     0.0468812  
H392     H      0.574470000000     0.362170000000     0.271250000000     0.0502366  
H393     H      0.464860000000     0.607790000000     0.413170000000     0.0498907  
H394     H      0.432110000000     0.614380000000     0.424800000000     0.0467126  
H395     H      0.409790000000     0.606690000000     0.366120000000     0.0463857  
H396     H      0.442860000000     0.600800000000     0.354200000000     0.0498738  
H397     H      0.470530000000     0.579430000000     0.354250000000     0.049895   
H398     H      0.504180000000     0.575980000000     0.342940000000     0.0465305  
H399     H      0.522220000000     0.620030000000     0.383810000000     0.0465646  
H400     H      0.488790000000     0.623980000000     0.394540000000     0.0498514  
H401     H      0.582610000000     0.582090000000     0.210250000000     0.0499442  
H402     H      0.594200000000     0.577260000000     0.176690000000     0.0464159  
H403     H      0.653480000000     0.575720000000     0.197770000000     0.0467187  
H404     H      0.642060000000     0.581200000000     0.231030000000     0.0499791  
H405     H      0.625700000000     0.563020000000     0.255480000000     0.0499143  
H406     H      0.615490000000     0.566020000000     0.289410000000     0.046624   
H407     H      0.570630000000     0.606220000000     0.272230000000     0.04662    
H408     H      0.581300000000     0.603710000000     0.238080000000     0.0499045  
H409     H      0.642530000000     0.517340000000     0.381820000000     0.0499849  
H410     H      0.628740000000     0.548790000000     0.373720000000     0.0473365  
H411     H      0.572030000000     0.522700000000     0.366890000000     0.0467013  
H412     H      0.585830000000     0.491320000000     0.374690000000     0.0501732  
H413     H      0.600880000000     0.471860000000     0.400510000000     0.0498947  
H414     H      0.613160000000     0.438920000000     0.402030000000     0.0466816  
H415     H      0.661530000000     0.454930000000     0.364940000000     0.0471532  
H416     H      0.649090000000     0.487770000000     0.363190000000     0.0503199  
H417     H      0.612400000000     0.669660000000     0.407910000000     0.0499892  
H418     H      0.604410000000     0.637510000000     0.395720000000     0.0472889  
H419     H      0.598460000000     0.660460000000     0.337130000000     0.046701   
H420     H      0.606140000000     0.692510000000     0.349320000000     0.0501723  
H421     H      0.631510000000     0.712780000000     0.363600000000     0.0496912  
H422     H      0.632540000000     0.746430000000     0.373820000000     0.046708   
H423     H      0.595220000000     0.733150000000     0.423000000000     0.0473777  
H424     H      0.593940000000     0.699580000000     0.412600000000     0.0501802  
H425     H      0.892070000000     0.860780000000     0.261020000000     0.0500276  
H426     H      0.904140000000     0.856210000000     0.227580000000     0.0470553  
H427     H      0.846110000000     0.840980000000     0.208650000000     0.0473661  
H428     H      0.834200000000     0.845170000000     0.241950000000     0.049929   
H429     H      0.828570000000     0.872110000000     0.263880000000     0.0499196  
H430     H      0.815730000000     0.878590000000     0.296440000000     0.0469104  
H431     H      0.865570000000     0.850360000000     0.322310000000     0.0472759  
H432     H      0.878320000000     0.843550000000     0.289530000000     0.0502215  
H433     H      0.829790000000     0.923680000000     0.131460000000     0.0497535  
H434     H      0.841890000000     0.891100000000     0.137300000000     0.0461577  
H435     H      0.900950000000     0.911450000000     0.130980000000     0.0462795  
H436     H      0.888980000000     0.943720000000     0.124210000000     0.0496684  
H437     H      0.875370000000     0.969160000000     0.142030000000     0.0496151  
H438     H      0.864180000000     0.002160000000     0.139170000000     0.0471721  
H439     H      0.813530000000     0.982890000000     0.107170000000     0.0466344  
H440     H      0.825190000000     0.949680000000     0.109260000000     0.049741   
H441     H      0.468360000000     0.831260000000     0.839760000000     0.0502311  
H442     H      0.501740000000     0.835900000000     0.828280000000     0.0472857  
H443     H      0.518530000000     0.855140000000     0.886120000000     0.0471243  
H444     H      0.485200000000     0.850720000000     0.897490000000     0.0500964  
H445     H      0.464130000000     0.822790000000     0.903770000000     0.0501481  
H446     H      0.431630000000     0.815120000000     0.915680000000     0.0473002  
H447     H      0.406600000000     0.840970000000     0.863850000000     0.0469365  
H448     H      0.439260000000     0.848840000000     0.851990000000     0.0502242  
H449     H      0.606950000000     0.749310000000     0.845070000000     0.0497755  
H450     H      0.600510000000     0.781720000000     0.833240000000     0.0464473  
H451     H      0.587880000000     0.800260000000     0.892320000000     0.0461917  
H452     H      0.593490000000     0.767520000000     0.904180000000     0.0497875  
H453     H      0.616040000000     0.741900000000     0.910070000000     0.049778   
H454     H      0.617750000000     0.708420000000     0.921110000000     0.0469283  
H455     H      0.590660000000     0.689970000000     0.867130000000     0.0468627  
H456     H      0.588250000000     0.723200000000     0.856450000000     0.0499241  
H457     H      0.752010000000     0.877000000000     0.625490000000     0.0497423  
H458     H      0.718570000000     0.888560000000     0.628680000000     0.0470038  
H459     H      0.697530000000     0.836000000000     0.602260000000     0.0463713  
H460     H      0.730770000000     0.824810000000     0.598260000000     0.049743   
H461     H      0.757440000000     0.812940000000     0.615990000000     0.0498306  
H462     H      0.789850000000     0.800600000000     0.609180000000     0.046381   
H463     H      0.809840000000     0.858210000000     0.596420000000     0.0459523  
H464     H      0.777070000000     0.870590000000     0.602340000000     0.0497705  
H465     H      0.619190000000     0.871260000000     0.518550000000     0.0502834  
H466     H      0.628380000000     0.885100000000     0.550030000000     0.0465297  
H467     H      0.615440000000     0.831030000000     0.578550000000     0.0473189  
H468     H      0.606090000000     0.817180000000     0.546940000000     0.0501165  
H469     H      0.623730000000     0.808090000000     0.516390000000     0.0502755  
H470     H      0.620060000000     0.795450000000     0.483200000000     0.0471738  
H471     H      0.587340000000     0.846140000000     0.466890000000     0.0467362  
H472     H      0.590890000000     0.858680000000     0.500120000000     0.0499277  
H473     H      0.638730000000     0.868970000000     0.727350000000     0.0498498  
H474     H      0.650500000000     0.875850000000     0.694490000000     0.0467199  
H475     H      0.597400000000     0.852730000000     0.670030000000     0.0470341  
H476     H      0.585750000000     0.845330000000     0.703060000000     0.0500833  
H477     H      0.574380000000     0.862010000000     0.732160000000     0.0499401  
H478     H      0.563190000000     0.858340000000     0.765930000000     0.0474154  
H479     H      0.620760000000     0.839860000000     0.783160000000     0.0469468  
H480     H      0.631790000000     0.842980000000     0.749390000000     0.0497562  
H481     H      0.985470000000     0.811980000000     0.605300000000     0.0498133  
H482     H      0.018800000000     0.815040000000     0.616660000000     0.046505   
H483     H      0.999110000000     0.847840000000     0.666690000000     0.0468641  
H484     H      0.965590000000     0.845500000000     0.654850000000     0.0497686  
H485     H      0.939040000000     0.823800000000     0.650280000000     0.0498597  
H486     H      0.906100000000     0.818930000000     0.637680000000     0.046107   
H487     H      0.927660000000     0.824210000000     0.578450000000     0.0464677  
H488     H      0.960290000000     0.829940000000     0.590910000000     0.0498151  
H489     H      0.130870000000     0.843550000000     0.750170000000     0.0502261  
H490     H      0.120360000000     0.837510000000     0.716630000000     0.0469962  
H491     H      0.060440000000     0.845520000000     0.734110000000     0.0474221  
H492     H      0.070980000000     0.851370000000     0.767830000000     0.0500372  
H493     H      0.088760000000     0.877140000000     0.785160000000     0.0502995  
H494     H      0.101660000000     0.887190000000     0.816870000000     0.0466275  
H495     H      0.143070000000     0.840370000000     0.815160000000     0.0469783  
H496     H      0.129990000000     0.830190000000     0.783530000000     0.0500313  
H497     H      0.088070000000     0.732680000000     0.653530000000     0.0500912  
H498     H      0.080670000000     0.764590000000     0.666320000000     0.0467744  
H499     H      0.103510000000     0.790290000000     0.613400000000     0.0475419  
H500     H      0.111200000000     0.758270000000     0.600690000000     0.0502463  
H501     H      0.093260000000     0.729920000000     0.588810000000     0.0502249  
H502     H      0.097010000000     0.697160000000     0.576320000000     0.04717    
H503     H      0.118700000000     0.678900000000     0.632820000000     0.0468705  
H504     H      0.115250000000     0.711650000000     0.645170000000     0.050012   
H505     H      0.134040000000     0.912080000000     0.619530000000     0.0499966  
H506     H      0.121590000000     0.880480000000     0.629190000000     0.0472004  
H507     H      0.066600000000     0.906420000000     0.644970000000     0.0467854  
H508     H      0.079090000000     0.937900000000     0.635700000000     0.0500461  
H509     H      0.089510000000     0.957540000000     0.608190000000     0.0497579  
H510     H      0.101080000000     0.990600000000     0.605010000000     0.046378   
H511     H      0.155250000000     0.974630000000     0.632820000000     0.0475942  
H512     H      0.143530000000     0.941680000000     0.636370000000     0.0502756  
H513     H      0.369700000000     0.067220000000     0.462510000000     0.049985   
H514     H      0.361840000000     0.054760000000     0.429980000000     0.0471481  
H515     H      0.315880000000     0.096910000000     0.424560000000     0.046729   
H516     H      0.323610000000     0.109210000000     0.457150000000     0.0502637  
H517     H      0.348540000000     0.125840000000     0.477230000000     0.0500694  
H518     H      0.351720000000     0.135530000000     0.511580000000     0.0471047  
H519     H      0.356180000000     0.075730000000     0.528530000000     0.0469607  
H520     H      0.352840000000     0.066100000000     0.494370000000     0.0504181  
H521     H      0.366880000000     0.232030000000     0.655610000000     0.0499087  
H522     H      0.373070000000     0.264220000000     0.668150000000     0.0466577  
H523     H      0.372350000000     0.286720000000     0.609120000000     0.0464305  
H524     H      0.366890000000     0.254250000000     0.596380000000     0.0498662  
H525     H      0.344800000000     0.227500000000     0.593740000000     0.0498749  
H526     H      0.341910000000     0.194450000000     0.581640000000     0.0468439  
H527     H      0.381070000000     0.175130000000     0.627130000000     0.0465258  
H528     H      0.384520000000     0.207990000000     0.638730000000     0.0498037  
H529     H      0.250500000000     0.049370000000     0.609380000000     0.050318   
H530     H      0.217520000000     0.037000000000     0.613190000000     0.0477515  
H531     H      0.200270000000     0.090280000000     0.640960000000     0.0464805  
H532     H      0.233370000000     0.102500000000     0.637500000000     0.0497996  
H533     H      0.252780000000     0.113200000000     0.609770000000     0.0501373  
H534     H      0.284280000000     0.126290000000     0.600360000000     0.0466125  
H535     H      0.311830000000     0.072540000000     0.616200000000     0.0472529  
H536     H      0.280240000000     0.059520000000     0.626000000000     0.0500897  
H537     H      0.477290000000     0.070090000000     0.608090000000     0.0499717  
H538     H      0.510640000000     0.067680000000     0.620130000000     0.0471988  
H539     H      0.495590000000     0.103310000000     0.669830000000     0.0467407  
H540     H      0.462260000000     0.105830000000     0.657660000000     0.0502931  
H541     H      0.431890000000     0.087410000000     0.650480000000     0.0500971  
H542     H      0.400070000000     0.095600000000     0.636740000000     0.0474345  
H543     H      0.426720000000     0.105240000000     0.580190000000     0.046425   
H544     H      0.458440000000     0.097190000000     0.593930000000     0.0504066  
H545     H      0.594880000000     0.004770000000     0.604430000000     0.0503503  
H546     H      0.582010000000     0.036520000000     0.612800000000     0.0470297  
H547     H      0.616540000000     0.036690000000     0.665760000000     0.0464633  
H548     H      0.629330000000     0.004950000000     0.657410000000     0.0506379  
H549     H      0.649670000000     0.987040000000     0.632920000000     0.049939   
H550     H      0.659110000000     0.953270000000     0.629160000000     0.0473487  
H551     H      0.599520000000     0.938520000000     0.615480000000     0.0467407  
H552     H      0.590130000000     0.972180000000     0.619290000000     0.0501536  
H553     H      0.567110000000     0.180970000000     0.605740000000     0.0505017  
H554     H      0.558480000000     0.149160000000     0.618050000000     0.0462315  
H555     H      0.615730000000     0.143440000000     0.643670000000     0.046214   
H556     H      0.624390000000     0.175400000000     0.631240000000     0.0502632  
H557     H      0.613350000000     0.209000000000     0.639400000000     0.0503774  
H558     H      0.617700000000     0.242790000000     0.630600000000     0.0471019  
H559     H      0.593470000000     0.231440000000     0.573270000000     0.0471335  
H560     H      0.589200000000     0.197600000000     0.582090000000     0.0501807  
H561     H      0.758050000000     0.099540000000     0.918050000000     0.0502999  
H562     H      0.789630000000     0.113730000000     0.925260000000     0.0467537  
H563     H      0.809240000000     0.100020000000     0.866690000000     0.0466988  
H564     H      0.777450000000     0.085650000000     0.859480000000     0.0502452  
H565     H      0.743230000000     0.097320000000     0.855430000000     0.0503902  
H566     H      0.709680000000     0.087150000000     0.849740000000     0.0476752  
H567     H      0.709410000000     0.057810000000     0.905620000000     0.0465168  
H568     H      0.743010000000     0.067850000000     0.911210000000     0.0500664  
H569     H      0.595670000000     0.950850000000     0.834380000000     0.0504651  
H570     H      0.581820000000     0.919050000000     0.828960000000     0.0468083  
H571     H      0.616730000000     0.896260000000     0.876300000000     0.0466135  
H572     H      0.630610000000     0.928390000000     0.881780000000     0.0504891  
H573     H      0.618320000000     0.961700000000     0.892930000000     0.0505202  
H574     H      0.628770000000     0.995130000000     0.897330000000     0.0473253  
H575     H      0.639130000000     0.999760000000     0.835000000000     0.0465317  
H576     H      0.628680000000     0.966460000000     0.830680000000     0.0499936  
H577     H      0.600350000000     0.119350000000     0.757120000000     0.0499023  
H578     H      0.590230000000     0.120640000000     0.722870000000     0.0466794  
H579     H      0.562820000000     0.064940000000     0.728900000000     0.0468961  
H580     H      0.573290000000     0.063470000000     0.763030000000     0.0500528  
H581     H      0.570320000000     0.077010000000     0.795980000000     0.0497115  
H582     H      0.585570000000     0.070590000000     0.827710000000     0.0462903  
H583     H      0.639600000000     0.094500000000     0.806280000000     0.0481076  
H584     H      0.624550000000     0.100570000000     0.774610000000     0.0503372  
H585     H      0.630690000000     0.136240000000     0.946590000000     0.0496699  
H586     H      0.637780000000     0.120550000000     0.915350000000     0.0463461  
H587     H      0.606630000000     0.069900000000     0.934590000000     0.0478861  
H588     H      0.599900000000     0.085380000000     0.965880000000     0.0505217  
H589     H      0.582720000000     0.111040000000     0.982690000000     0.0499473  
H590     H      0.580550000000     0.121260000000     0.016850000000     0.0470832  
H591     H      0.639600000000     0.142530000000     0.014050000000     0.0467907  
H592     H      0.641920000000     0.131960000000     0.980080000000     0.0500888  
H593     H      0.831590000000     0.575490000000     0.995920000000     0.0498408  
H594     H      0.836600000000     0.586490000000     0.029270000000     0.0466562  
H595     H      0.870270000000     0.634660000000     0.007930000000     0.0466872  
H596     H      0.865970000000     0.623160000000     0.974300000000     0.0498122  
H597     H      0.842400000000     0.619660000000     0.948870000000     0.0498579  
H598     H      0.834830000000     0.607760000000     0.916020000000     0.0461808  
H599     H      0.839190000000     0.549250000000     0.936980000000     0.0464593  
H600     H      0.847640000000     0.560970000000     0.969460000000     0.0497841  
H601     H      0.880910000000     0.717490000000     0.137090000000     0.0498743  
H602     H      0.877560000000     0.684220000000     0.126770000000     0.0467268  
H603     H      0.849890000000     0.702810000000     0.073130000000     0.0469354  
H604     H      0.852590000000     0.736330000000     0.083810000000     0.0498954  
H605     H      0.875750000000     0.761650000000     0.089300000000     0.0498859  
H606     H      0.881590000000     0.794440000000     0.100950000000     0.0460549  
H607     H      0.869080000000     0.776260000000     0.160180000000     0.0465519  
H608     H      0.862460000000     0.743830000000     0.148560000000     0.0499039  
H609     H      0.734620000000     0.616880000000     0.128700000000     0.0498373  
H610     H      0.701330000000     0.605640000000     0.133020000000     0.0472922  
H611     H      0.717580000000     0.549810000000     0.110350000000     0.0472127  
H612     H      0.750910000000     0.561220000000     0.105610000000     0.0500642  
H613     H      0.780420000000     0.571840000000     0.122750000000     0.0501171  
H614     H      0.812940000000     0.583700000000     0.114530000000     0.0473293  
H615     H      0.787770000000     0.636850000000     0.093480000000     0.0469289  
H616     H      0.755420000000     0.624920000000     0.101300000000     0.0499767  
H617     H      0.388480000000     0.195270000000     0.153700000000     0.0498303  
H618     H      0.396110000000     0.163320000000     0.166080000000     0.0469346  
H619     H      0.371260000000     0.137910000000     0.113940000000     0.0472699  
H620     H      0.363240000000     0.170040000000     0.101650000000     0.0500744  
H621     H      0.379800000000     0.198770000000     0.089200000000     0.0500771  
H622     H      0.375260000000     0.231720000000     0.077480000000     0.0473141  
H623     H      0.357050000000     0.249090000000     0.135490000000     0.0470932  
H624     H      0.361150000000     0.216170000000     0.147060000000     0.049849   
H625     H      0.340680000000     0.308310000000     0.983160000000     0.0502019  
H626     H      0.345570000000     0.295870000000     0.016310000000     0.0469413  
H627     H      0.380190000000     0.345930000000     0.030510000000     0.0470947  
H628     H      0.375520000000     0.358200000000     0.997360000000     0.0499615  
H629     H      0.347690000000     0.371470000000     0.979340000000     0.0501252  
H630     H      0.338580000000     0.385100000000     0.947740000000     0.0467194  
H631     H      0.347910000000     0.329790000000     0.920250000000     0.0474205  
H632     H      0.357260000000     0.316170000000     0.951940000000     0.0501263  
H633     H      0.480780000000     0.302070000000     0.152690000000     0.0503005  
H634     H      0.514050000000     0.308190000000     0.163750000000     0.0462078  
H635     H      0.511190000000     0.365550000000     0.139330000000     0.0467201  
H636     H      0.477850000000     0.359410000000     0.128410000000     0.0507334  
H637     H      0.443570000000     0.351940000000     0.142130000000     0.0506457  
H638     H      0.411680000000     0.344830000000     0.127640000000     0.0465623  
H639     H      0.434670000000     0.291850000000     0.103770000000     0.0463464  
H640     H      0.466270000000     0.298880000000     0.118340000000     0.0504808  
H641     H      0.975340000000     0.324370000000     0.337780000000     0.0500449  
H642     H      0.009070000000     0.328050000000     0.326920000000     0.0471935  
H643     H      0.026440000000     0.340630000000     0.386450000000     0.0472669  
H644     H      0.992840000000     0.337360000000     0.397190000000     0.0499322  
H645     H      0.969530000000     0.311570000000     0.401370000000     0.0499143  
H646     H      0.936440000000     0.306160000000     0.412780000000     0.0468477  
H647     H      0.914090000000     0.336480000000     0.362230000000     0.0470974  
H648     H      0.947390000000     0.342240000000     0.350950000000     0.0501278  
H649     H      0.085160000000     0.439510000000     0.366700000000     0.049924   
H650     H      0.073990000000     0.406760000000     0.361100000000     0.0463627  
H651     H      0.133520000000     0.387730000000     0.354870000000     0.046298   
H652     H      0.144790000000     0.420790000000     0.359690000000     0.0499132  
H653     H      0.148380000000     0.447600000000     0.381670000000     0.0498665  
H654     H      0.158740000000     0.481270000000     0.383310000000     0.0467821  
H655     H      0.108230000000     0.497970000000     0.349620000000     0.0466361  
H656     H      0.098290000000     0.464520000000     0.347350000000     0.0499452  
H657     H      0.093190000000     0.212650000000     0.354150000000     0.0498702  
H658     H      0.094860000000     0.179220000000     0.364260000000     0.046858   
H659     H      0.123370000000     0.196080000000     0.418040000000     0.0467915  
H660     H      0.122460000000     0.229750000000     0.407540000000     0.0498202  
H661     H      0.100760000000     0.256100000000     0.402480000000     0.0498595  
H662     H      0.095750000000     0.289130000000     0.391240000000     0.0461782  
H663     H      0.106290000000     0.271110000000     0.331580000000     0.0461567  
H664     H      0.112210000000     0.238390000000     0.342790000000     0.0499359  
H665     H      0.085030000000     0.588490000000     0.293290000000     0.05023    
H666     H      0.098560000000     0.580420000000     0.325400000000     0.0474894  
H667     H      0.154430000000     0.569310000000     0.298570000000     0.0467759  
H668     H      0.140880000000     0.577150000000     0.266540000000     0.0501533  
H669     H      0.127930000000     0.604070000000     0.247300000000     0.0500876  
H670     H      0.115590000000     0.607720000000     0.214000000000     0.0469179  
H671     H      0.064400000000     0.574880000000     0.229460000000     0.0469642  
H672     H      0.076900000000     0.571020000000     0.262770000000     0.0502435  
H673     H      0.937250000000     0.589580000000     0.142700000000     0.0500201  
H674     H      0.904990000000     0.597970000000     0.130170000000     0.0473126  
H675     H      0.931180000000     0.619260000000     0.076800000000     0.046897   
H676     H      0.963280000000     0.611310000000     0.089420000000     0.0498164  
H677     H      0.984260000000     0.584760000000     0.097670000000     0.0496906  
H678     H      0.017480000000     0.581370000000     0.109630000000     0.0469007  
H679     H      0.999550000000     0.602200000000     0.166530000000     0.047402   
H680     H      0.966340000000     0.606070000000     0.154410000000     0.0500056  
H681     H      0.109770000000     0.861100000000     0.990930000000     0.0502502  
H682     H      0.104760000000     0.849890000000     0.024380000000     0.0470351  
H683     H      0.124030000000     0.792980000000     0.007620000000     0.0469702  
H684     H      0.128750000000     0.804160000000     0.973970000000     0.0500713  
H685     H      0.151130000000     0.825550000000     0.956620000000     0.0500599  
H686     H      0.159180000000     0.839370000000     0.924800000000     0.0467976  
H687     H      0.105710000000     0.872140000000     0.925770000000     0.0468624  
H688     H      0.097480000000     0.858030000000     0.957510000000     0.0499861  
H689     H      0.072400000000     0.703560000000     0.086920000000     0.0505751  
H690     H      0.077540000000     0.736740000000     0.076080000000     0.0464779  
H691     H      0.129750000000     0.739850000000     0.111290000000     0.0464604  
H692     H      0.124680000000     0.706540000000     0.121890000000     0.0508953  
H693     H      0.122540000000     0.671430000000     0.107200000000     0.0507289  
H694     H      0.115540000000     0.639720000000     0.121490000000     0.0464744  
H695     H      0.057480000000     0.658840000000     0.136140000000     0.0461281  
H696     H      0.064370000000     0.690210000000     0.121630000000     0.0507083  
H697     H      0.210230000000     0.817170000000     0.104210000000     0.0501862  
H698     H      0.179540000000     0.802850000000     0.094060000000     0.0473876  
H699     H      0.148920000000     0.854000000000     0.112810000000     0.0469467  
H700     H      0.179810000000     0.868320000000     0.123220000000     0.0501286  
H701     H      0.209770000000     0.880700000000     0.107250000000     0.0502187  
H702     H      0.242310000000     0.894000000000     0.112310000000     0.0474649  
H703     H      0.260690000000     0.840240000000     0.138320000000     0.0467137  
H704     H      0.228160000000     0.827090000000     0.133520000000     0.0499826  
H705     H      0.005080000000     0.823940000000     0.089260000000     0.0501252  
H706     H      0.037120000000     0.816410000000     0.076360000000     0.0474554  
H707     H      0.062110000000     0.824620000000     0.133900000000     0.0466985  
H708     H      0.029870000000     0.832680000000     0.146820000000     0.0500915  
H709     H      0.998540000000     0.817590000000     0.153960000000     0.0497362  
H710     H      0.965100000000     0.822740000000     0.165080000000     0.0468255  
H711     H      0.952990000000     0.855060000000     0.112350000000     0.0472027  
H712     H      0.986390000000     0.850420000000     0.101530000000     0.0497585  
H713     H      0.284340000000     0.369890000000     0.105670000000     0.0498712  
H714     H      0.317030000000     0.357340000000     0.099750000000     0.0461886  
H715     H      0.297660000000     0.300460000000     0.116360000000     0.0466371  
H716     H      0.265300000000     0.313040000000     0.123050000000     0.0498267  
H717     H      0.238520000000     0.323820000000     0.104380000000     0.0499185  
H718     H      0.205230000000     0.335090000000     0.107470000000     0.0468947  
H719     H      0.225840000000     0.388940000000     0.131450000000     0.0469368  
H720     H      0.259390000000     0.377350000000     0.129040000000     0.0498577  
H721     H      0.139490000000     0.512540000000     0.137530000000     0.0498712  
H722     H      0.126670000000     0.544840000000     0.143440000000     0.046172   
H723     H      0.068550000000     0.524410000000     0.131200000000     0.0466212  
H724     H      0.081340000000     0.492430000000     0.124470000000     0.0498053  
H725     H      0.093790000000     0.466580000000     0.142930000000     0.0499364  
H726     H      0.105440000000     0.433750000000     0.139880000000     0.046895   
H727     H      0.157990000000     0.454280000000     0.112080000000     0.0469162  
H728     H      0.145960000000     0.487360000000     0.114440000000     0.0498483  
H729     H      0.140180000000     0.340220000000     0.249940000000     0.0498258  
H730     H      0.129030000000     0.335600000000     0.283470000000     0.0472882  
H731     H      0.070560000000     0.350880000000     0.266040000000     0.0472495  
H732     H      0.081850000000     0.355950000000     0.232430000000     0.0500318  
H733     H      0.094860000000     0.339880000000     0.203210000000     0.0501406  
H734     H      0.106560000000     0.348100000000     0.170370000000     0.0473249  
H735     H      0.157230000000     0.375200000000     0.195850000000     0.0469762  
H736     H      0.145420000000     0.367360000000     0.228480000000     0.0499886  
H737     H      0.084440000000     0.197160000000     0.844770000000     0.0500155  
H738     H      0.078100000000     0.165120000000     0.832020000000     0.047579   
H739     H      0.094210000000     0.140380000000     0.887850000000     0.0465596  
H740     H      0.100980000000     0.172680000000     0.900600000000     0.0500889  
H741     H      0.083680000000     0.202430000000     0.909710000000     0.0500375  
H742     H      0.087640000000     0.235660000000     0.920990000000     0.0470134  
H743     H      0.114740000000     0.250420000000     0.865830000000     0.0474295  
H744     H      0.111220000000     0.217310000000     0.854790000000     0.0499348  
H745     H      0.105310000000     0.365640000000     0.998390000000     0.0498665  
H746     H      0.099910000000     0.353850000000     0.965240000000     0.0473057  
H747     H      0.118630000000     0.297050000000     0.982960000000     0.0471776  
H748     H      0.124460000000     0.309000000000     0.016180000000     0.0501103  
H749     H      0.108820000000     0.321800000000     0.045890000000     0.0501384  
H750     H      0.118120000000     0.334320000000     0.078100000000     0.0473727  
H751     H      0.142500000000     0.384870000000     0.050470000000     0.0470224  
H752     H      0.133570000000     0.372270000000     0.018450000000     0.0500543  
H753     H      0.022700000000     0.324740000000     0.843900000000     0.0498116  
H754     H      0.055500000000     0.318770000000     0.856260000000     0.0460696  
H755     H      0.036150000000     0.331890000000     0.914990000000     0.0463818  
H756     H      0.003690000000     0.338820000000     0.902650000000     0.0498843  
H757     H      0.976470000000     0.322330000000     0.891000000000     0.0495513  
H758     H      0.943270000000     0.326450000000     0.879540000000     0.0463992  
H759     H      0.964600000000     0.350590000000     0.825290000000     0.0470657  
H760     H      0.998000000000     0.347360000000     0.837110000000     0.0496019  
H761     H      0.185180000000     0.371530000000     0.887110000000     0.0498079  
H762     H      0.152210000000     0.359200000000     0.892210000000     0.0463701  
H763     H      0.174270000000     0.300980000000     0.890680000000     0.0466468  
H764     H      0.206930000000     0.313140000000     0.884830000000     0.0498973  
H765     H      0.231330000000     0.328670000000     0.903380000000     0.0498709  
H766     H      0.264710000000     0.339710000000     0.900510000000     0.0466735  
H767     H      0.246040000000     0.386210000000     0.862890000000     0.0467044  
H768     H      0.212430000000     0.374700000000     0.865160000000     0.0498549  
O1       O      0.109560000000     0.300520000000     0.945930000000    -0.231107   
O2       O      0.082570000000     0.317920000000     0.883750000000    -0.23442    
O3       O      0.097770000000     0.271850000000     0.917220000000    -0.23138    
O4       O      0.139290000000     0.304650000000     0.903880000000    -0.238355   
O5       O      0.125980000000     0.331690000000     0.896400000000    -0.233452   
O6       O      0.108130000000     0.279000000000     0.888350000000    -0.236183   
O7       O      0.102920000000     0.329600000000     0.937280000000    -0.236543   
O8       O      0.069790000000     0.314970000000     0.912350000000    -0.238364   
O9       O      0.156900000000     0.417120000000     0.119430000000    -0.230889   
O10      O      0.130290000000     0.364050000000     0.145360000000    -0.230771   
O11      O      0.188150000000     0.386870000000     0.125340000000    -0.231009   
O12      O      0.147260000000     0.383330000000     0.087570000000    -0.239821   
O13      O      0.134210000000     0.358960000000     0.101940000000    -0.230661   
O14      O      0.178430000000     0.358310000000     0.118030000000    -0.240155   
O15      O      0.128580000000     0.407310000000     0.128430000000    -0.240267   
O16      O      0.154960000000     0.377990000000     0.158610000000    -0.239956   
O17      O      0.115350000000     0.796970000000     0.044480000000    -0.234512   
O18      O      0.127040000000     0.826910000000     0.097920000000    -0.232448   
O19      O      0.096260000000     0.769170000000     0.074210000000    -0.23507    
O20      O      0.073550000000     0.810260000000     0.078220000000    -0.237119   
O21      O      0.086570000000     0.813520000000     0.106670000000    -0.234066   
O22      O      0.117050000000     0.772620000000     0.097480000000    -0.235355   
O23      O      0.106710000000     0.825610000000     0.052640000000    -0.237543   
O24      O      0.143240000000     0.803210000000     0.085800000000    -0.235818   
O25      O      0.036500000000     0.594650000000     0.163220000000    -0.2299     
O26      O      0.098820000000     0.570900000000     0.145480000000    -0.233515   
O27      O      0.067060000000     0.584200000000     0.192600000000    -0.234726   
O28      O      0.067660000000     0.626190000000     0.151030000000    -0.23931    
O29      O      0.091630000000     0.613090000000     0.135740000000    -0.232152   
O30      O      0.092580000000     0.600520000000     0.185350000000    -0.239962   
O31      O      0.045410000000     0.587460000000     0.133800000000    -0.235572   
O32      O      0.070600000000     0.557800000000     0.147880000000    -0.236821   
O33      O      0.046240000000     0.334200000000     0.331900000000    -0.230412   
O34      O      0.106670000000     0.360630000000     0.352120000000    -0.233875   
O35      O      0.074930000000     0.342970000000     0.303210000000    -0.230112   
O36      O      0.089640000000     0.304430000000     0.335730000000    -0.239227   
O37      O      0.094390000000     0.316570000000     0.364340000000    -0.233609   
O38      O      0.104720000000     0.338090000000     0.311670000000    -0.23646    
O39      O      0.054450000000     0.338880000000     0.361980000000    -0.236736   
O40      O      0.078480000000     0.372790000000     0.346310000000    -0.23985    
O41      O      0.356200000000     0.298420000000     0.052810000000    -0.234546   
O42      O      0.386190000000     0.322130000000     0.110180000000    -0.233045   
O43      O      0.367880000000     0.268280000000     0.081460000000    -0.230212   
O44      O      0.331040000000     0.301890000000     0.098890000000    -0.236588   
O45      O      0.343650000000     0.330190000000     0.098450000000    -0.233985   
O46      O      0.361580000000     0.276810000000     0.111190000000    -0.235311   
O47      O      0.373360000000     0.323420000000     0.059470000000    -0.239108   
O48      O      0.400090000000     0.300460000000     0.092520000000    -0.239302   
O49      O      0.862800000000     0.634680000000     0.045820000000    -0.230923   
O50      O      0.837640000000     0.608130000000     0.099690000000    -0.23067    
O51      O      0.856580000000     0.665700000000     0.075870000000    -0.231102   
O52      O      0.894390000000     0.624250000000     0.079080000000    -0.239722   
O53      O      0.880830000000     0.613310000000     0.105230000000    -0.231195   
O54      O      0.865630000000     0.656930000000     0.104710000000    -0.240009   
O55      O      0.851630000000     0.607520000000     0.055980000000    -0.24006    
O56      O      0.824460000000     0.633830000000     0.088110000000    -0.239489   
O57      O      0.644810000000     0.030970000000     0.854410000000    -0.239636   
O58      O      0.614800000000     0.068190000000     0.851820000000    -0.238368   
O59      O      0.676500000000     0.057730000000     0.887330000000    -0.239334   
O60      O      0.624660000000     0.066120000000     0.901740000000    -0.232517   
O61      O      0.639970000000     0.091310000000     0.891960000000    -0.239829   
O62      O      0.676150000000     0.074300000000     0.860760000000    -0.23075    
O63      O      0.636160000000     0.029730000000     0.884640000000    -0.231144   
O64      O      0.641930000000     0.078210000000     0.839880000000    -0.230699   
O65      O      0.532420000000     0.096260000000     0.665850000000    -0.234647   
O66      O      0.576970000000     0.066120000000     0.635250000000    -0.233538   
O67      O      0.563100000000     0.078630000000     0.693690000000    -0.234474   
O68      O      0.562760000000     0.120330000000     0.641280000000    -0.240148   
O69      O      0.592390000000     0.114070000000     0.648920000000    -0.236582   
O70      O      0.577940000000     0.105750000000     0.690590000000    -0.236715   
O71      O      0.539450000000     0.077350000000     0.641910000000    -0.233239   
O72      O      0.591050000000     0.063960000000     0.663240000000    -0.237714   
O73      O      0.355920000000     0.129440000000     0.549070000000    -0.232629   
O74      O      0.334830000000     0.098100000000     0.601040000000    -0.233501   
O75      O      0.350790000000     0.157620000000     0.580850000000    -0.230073   
O76      O      0.390620000000     0.115080000000     0.582560000000    -0.238265   
O77      O      0.376450000000     0.106520000000     0.609350000000    -0.2304     
O78      O      0.365730000000     0.148200000000     0.606820000000    -0.23906    
O79      O      0.354620000000     0.099570000000     0.557200000000    -0.238749   
O80      O      0.320810000000     0.124450000000     0.592630000000    -0.240588   
O81      O      0.036420000000     0.839280000000     0.666230000000    -0.229635   
O82      O      0.089180000000     0.814440000000     0.638530000000    -0.230917   
O83      O      0.065690000000     0.838670000000     0.697000000000    -0.231698   
O84      O      0.069480000000     0.870580000000     0.653200000000    -0.240749   
O85      O      0.096080000000     0.856990000000     0.644170000000    -0.232553   
O86      O      0.095740000000     0.837500000000     0.688300000000    -0.238965   
O87      O      0.046010000000     0.829030000000     0.638080000000    -0.239051   
O88      O      0.076320000000     0.801250000000     0.663990000000    -0.238991   
O89      O      0.680970000000     0.887110000000     0.622150000000    -0.229838   
O90      O      0.628050000000     0.858080000000     0.601580000000    -0.231044   
O91      O      0.652870000000     0.917040000000     0.622150000000    -0.231126   
O92      O      0.648140000000     0.877970000000     0.657200000000    -0.241389   
O93      O      0.621540000000     0.867480000000     0.644630000000    -0.23362    
O94      O      0.622530000000     0.909580000000     0.620320000000    -0.238183   
O95      O      0.670900000000     0.858520000000     0.615540000000    -0.238834   
O96      O      0.638210000000     0.883330000000     0.586380000000    -0.238813   
O97      O      0.538700000000     0.842610000000     0.832790000000    -0.232618   
O98      O      0.596640000000     0.870640000000     0.856060000000    -0.233253   
O99      O      0.567350000000     0.850870000000     0.803060000000    -0.229148   
O100     O      0.583470000000     0.814830000000     0.836320000000    -0.237623   
O101     O      0.586090000000     0.827230000000     0.865070000000    -0.233187   
O102     O      0.597100000000     0.845680000000     0.811670000000    -0.235721   
O103     O      0.546550000000     0.852840000000     0.861450000000    -0.238966   
O104     O      0.575660000000     0.883700000000     0.836820000000    -0.240583   
O105     O      0.929410000000     0.835750000000     0.161870000000    -0.231623   
O106     O      0.869470000000     0.864670000000     0.140250000000    -0.233681   
O107     O      0.900560000000     0.848810000000     0.190150000000    -0.231541   
O108     O      0.885610000000     0.809480000000     0.156930000000    -0.238727   
O109     O      0.883400000000     0.821580000000     0.128020000000    -0.234637   
O110     O      0.871130000000     0.842840000000     0.181210000000    -0.236841   
O111     O      0.923090000000     0.847240000000     0.133260000000    -0.235873   
O112     O      0.897020000000     0.877760000000     0.147080000000    -0.237815   
O113     O      0.541280000000     0.585510000000     0.341580000000    -0.232138   
O114     O      0.592670000000     0.613030000000     0.369600000000    -0.231028   
O115     O      0.571410000000     0.597270000000     0.309660000000    -0.232441   
O116     O      0.574100000000     0.558190000000     0.356230000000    -0.238297   
O117     O      0.601710000000     0.571810000000     0.361550000000    -0.231811   
O118     O      0.596870000000     0.581170000000     0.317850000000    -0.239822   
O119     O      0.550020000000     0.603280000000     0.365830000000    -0.239806   
O120     O      0.587580000000     0.625280000000     0.341090000000    -0.238303   
O121     O      0.689140000000     0.390090000000     0.384610000000    -0.231751   
O122     O      0.635560000000     0.388860000000     0.348100000000    -0.239014   
O123     O      0.658860000000     0.418560000000     0.372380000000    -0.23325    
O124     O      0.660440000000     0.369470000000     0.410550000000    -0.239804   
O125     O      0.631140000000     0.366580000000     0.400060000000    -0.235686   
O126     O      0.635090000000     0.410760000000     0.391320000000    -0.237429   
O127     O      0.682830000000     0.368210000000     0.363230000000    -0.236033   
O128     O      0.643120000000     0.359420000000     0.354160000000    -0.232312   
O129     O      0.653460000000     0.524420000000     0.130410000000    -0.230385   
O130     O      0.632850000000     0.585240000000     0.105650000000    -0.234234   
O131     O      0.680980000000     0.553470000000     0.119770000000    -0.231267   
O132     O      0.648850000000     0.564730000000     0.162120000000    -0.239236   
O133     O      0.621120000000     0.572300000000     0.149710000000    -0.233748   
O134     O      0.673090000000     0.581990000000     0.129160000000    -0.236511   
O135     O      0.623380000000     0.532110000000     0.126300000000    -0.236629   
O136     O      0.636080000000     0.557340000000     0.092420000000    -0.238776   
O137     O      0.569500000000     0.348120000000     0.200760000000    -0.234883   
O138     O      0.599900000000     0.367770000000     0.148700000000    -0.234914   
O139     O      0.545200000000     0.328830000000     0.168330000000    -0.236377   
O140     O      0.585120000000     0.327010000000     0.135350000000    -0.235999   
O141     O      0.593060000000     0.313970000000     0.162790000000    -0.234962   
O142     O      0.545530000000     0.354390000000     0.150560000000    -0.234899   
O143     O      0.599280000000     0.341970000000     0.193360000000    -0.235063   
O144     O      0.576110000000     0.380510000000     0.164520000000    -0.236902   
O145     O      0.782660000000     0.888110000000     0.373410000000    -0.231554   
O146     O      0.831980000000     0.855330000000     0.390720000000    -0.233475   
O147     O      0.812730000000     0.916070000000     0.372350000000    -0.229434   
O148     O      0.816660000000     0.879540000000     0.333820000000    -0.239496   
O149     O      0.840680000000     0.864600000000     0.347240000000    -0.231608   
O150     O      0.841910000000     0.906480000000     0.366260000000    -0.238581   
O151     O      0.789800000000     0.858930000000     0.365660000000    -0.238176   
O152     O      0.824010000000     0.881820000000     0.404820000000    -0.241275   
O153     O      0.397570000000     0.854690000000     0.302740000000    -0.236947   
O154     O      0.365160000000     0.857890000000     0.344640000000    -0.235622   
O155     O      0.428960000000     0.833350000000     0.326870000000    -0.234611   
O156     O      0.392510000000     0.804090000000     0.335350000000    -0.237139   
O157     O      0.379940000000     0.817850000000     0.360560000000    -0.235789   
O158     O      0.423440000000     0.845360000000     0.355390000000    -0.233535   
O159     O      0.376900000000     0.831540000000     0.304680000000    -0.235249   
O160     O      0.392870000000     0.870900000000     0.350930000000    -0.233491   
O161     O      0.602260000000     0.769350000000     0.418000000000    -0.23149    
O162     O      0.630150000000     0.816070000000     0.385580000000    -0.233352   
O163     O      0.612930000000     0.798800000000     0.446090000000    -0.232087   
O164     O      0.575370000000     0.797180000000     0.395770000000    -0.24002    
O165     O      0.584090000000     0.826870000000     0.395380000000    -0.234802   
O166     O      0.595260000000     0.823230000000     0.438400000000    -0.23695    
O167     O      0.620810000000     0.775860000000     0.393460000000    -0.236347   
O168     O      0.637750000000     0.821200000000     0.415680000000    -0.239911   
O169     O      0.426550000000     0.328900000000     0.669460000000    -0.230757   
O170     O      0.365120000000     0.355450000000     0.650780000000    -0.233995   
O171     O      0.397680000000     0.340660000000     0.697840000000    -0.231711   
O172     O      0.385290000000     0.299110000000     0.664500000000    -0.239082   
O173     O      0.377440000000     0.312320000000     0.637110000000    -0.234245   
O174     O      0.368790000000     0.331250000000     0.690280000000    -0.236421   
O175     O      0.418490000000     0.335410000000     0.639690000000    -0.236178   
O176     O      0.393810000000     0.367600000000     0.652980000000    -0.238005   
O177     O      0.620900000000     0.297090000000     0.555070000000    -0.23502    
O178     O      0.625430000000     0.329700000000     0.599770000000    -0.235274   
O179     O      0.602810000000     0.266940000000     0.579690000000    -0.23351    
O180     O      0.571430000000     0.302920000000     0.586900000000    -0.237585   
O181     O      0.584290000000     0.315040000000     0.612840000000    -0.234849   
O182     O      0.611140000000     0.272960000000     0.609470000000    -0.235012   
O183     O      0.600420000000     0.320260000000     0.558410000000    -0.235703   
O184     O      0.639920000000     0.302340000000     0.601800000000    -0.235762   
O185     O      0.112420000000     0.631090000000     0.549040000000    -0.229581   
O186     O      0.085600000000     0.611290000000     0.609070000000    -0.232318   
O187     O      0.103750000000     0.660460000000     0.579510000000    -0.233564   
O188     O      0.143300000000     0.619870000000     0.582190000000    -0.239824   
O189     O      0.128750000000     0.603340000000     0.604490000000    -0.231817   
O190     O      0.113900000000     0.651670000000     0.607890000000    -0.240336   
O191     O      0.104650000000     0.602240000000     0.557750000000    -0.236835   
O192     O      0.073420000000     0.619290000000     0.581200000000    -0.238127   
O193     O      0.185810000000     0.549040000000     0.366730000000    -0.231284   
O194     O      0.132380000000     0.575650000000     0.392050000000    -0.231193   
O195     O      0.156430000000     0.518020000000     0.374420000000    -0.231076   
O196     O      0.152310000000     0.560730000000     0.335220000000    -0.239125   
O197     O      0.125480000000     0.568760000000     0.349260000000    -0.231288   
O198     O      0.128500000000     0.526010000000     0.362750000000    -0.239822   
O199     O      0.175670000000     0.576190000000     0.377930000000    -0.239835   
O200     O      0.142970000000     0.549630000000     0.405390000000    -0.239742   
O201     O      0.351900000000     0.634440000000     0.452550000000    -0.232778   
O202     O      0.383520000000     0.613610000000     0.393520000000    -0.232702   
O203     O      0.365470000000     0.664090000000     0.423500000000    -0.2316     
O204     O      0.327280000000     0.630570000000     0.407860000000    -0.238703   
O205     O      0.340320000000     0.602590000000     0.404880000000    -0.234008   
O206     O      0.360550000000     0.654900000000     0.393780000000    -0.237521   
O207     O      0.366970000000     0.608050000000     0.446070000000    -0.237053   
O208     O      0.396600000000     0.624950000000     0.419760000000    -0.237955   
O209     O      0.286160000000     0.542810000000     0.612830000000    -0.235634   
O210     O      0.328540000000     0.574680000000     0.608030000000    -0.235742   
O211     O      0.312440000000     0.511240000000     0.626940000000    -0.233348   
O212     O      0.317700000000     0.548290000000     0.663850000000    -0.235903   
O213     O      0.340400000000     0.564850000000     0.650070000000    -0.232656   
O214     O      0.341970000000     0.520170000000     0.632100000000    -0.237873   
O215     O      0.287430000000     0.561450000000     0.637920000000    -0.235392   
O216     O      0.332990000000     0.546760000000     0.595290000000    -0.238724   
O217     O      0.185450000000     0.892410000000     0.883830000000    -0.235899   
O218     O      0.146720000000     0.863390000000     0.844740000000    -0.234682   
O219     O      0.155200000000     0.921170000000     0.857770000000    -0.236942   
O220     O      0.128480000000     0.879300000000     0.896290000000    -0.234268   
O221     O      0.155400000000     0.863680000000     0.896660000000    -0.237891   
O222     O      0.139940000000     0.917930000000     0.885080000000    -0.233935   
O223     O      0.183730000000     0.879140000000     0.855390000000    -0.232842   
O224     O      0.127300000000     0.887560000000     0.844520000000    -0.238445   
O225     O      0.314130000000     0.416340000000     0.882800000000    -0.231715   
O226     O      0.342360000000     0.364760000000     0.854990000000    -0.231173   
O227     O      0.283310000000     0.386030000000     0.871980000000    -0.231508   
O228     O      0.328170000000     0.383210000000     0.911570000000    -0.238429   
O229     O      0.335520000000     0.356720000000     0.897000000000    -0.230499   
O230     O      0.292300000000     0.359770000000     0.885960000000    -0.239897   
O231     O      0.340960000000     0.407870000000     0.869060000000    -0.239942   
O232     O      0.315850000000     0.374650000000     0.841610000000    -0.238973   
O233     O      0.354890000000     0.774330000000     0.916870000000    -0.234072   
O234     O      0.381580000000     0.826850000000     0.888620000000    -0.234006   
O235     O      0.369220000000     0.822470000000     0.942670000000    -0.234025   
O236     O      0.328490000000     0.812230000000     0.892040000000    -0.238193   
O237     O      0.340260000000     0.838820000000     0.902860000000    -0.237329   
O238     O      0.342200000000     0.806890000000     0.942500000000    -0.235338   
O239     O      0.364080000000     0.782480000000     0.887940000000    -0.238175   
O240     O      0.394620000000     0.811460000000     0.912670000000    -0.234525   
O241     O      0.425600000000     0.599900000000     0.835990000000    -0.23062    
O242     O      0.365510000000     0.572730000000     0.857260000000    -0.233308   
O243     O      0.397040000000     0.589230000000     0.807390000000    -0.23043    
O244     O      0.381860000000     0.628450000000     0.839100000000    -0.239138   
O245     O      0.377670000000     0.616950000000     0.868050000000    -0.233878   
O246     O      0.367150000000     0.593400000000     0.815840000000    -0.236695   
O247     O      0.417740000000     0.593540000000     0.865840000000    -0.236417   
O248     O      0.393440000000     0.560240000000     0.850880000000    -0.238906   
O249     O      0.860900000000     0.169880000000     0.916090000000    -0.230571   
O250     O      0.835290000000     0.116220000000     0.889470000000    -0.23273    
O251     O      0.854770000000     0.140830000000     0.946770000000    -0.230792   
O252     O      0.890460000000     0.140400000000     0.898710000000    -0.239688   
O253     O      0.879810000000     0.111500000000     0.895080000000    -0.231343   
O254     O      0.868030000000     0.114060000000     0.938270000000    -0.238789   
O255     O      0.848270000000     0.160910000000     0.888680000000    -0.238271   
O256     O      0.823500000000     0.126260000000     0.916810000000    -0.240446   
O257     O      0.603020000000     0.641050000000     0.949330000000    -0.230677   
O258     O      0.626190000000     0.612950000000     0.895290000000    -0.230594   
O259     O      0.609880000000     0.671490000000     0.918740000000    -0.230876   
O260     O      0.570280000000     0.632520000000     0.916080000000    -0.239881   
O261     O      0.583100000000     0.619820000000     0.890390000000    -0.231088   
O262     O      0.601060000000     0.662620000000     0.889860000000    -0.239795   
O263     O      0.611140000000     0.612810000000     0.939290000000    -0.239976   
O264     O      0.640800000000     0.637500000000     0.907680000000    -0.239505   
O265     O      0.862480000000     0.769520000000     0.576630000000    -0.231299   
O266     O      0.836620000000     0.830850000000     0.595270000000    -0.234278   
O267     O      0.851240000000     0.798050000000     0.548170000000    -0.231576   
O268     O      0.892890000000     0.810340000000     0.581780000000    -0.238817   
O269     O      0.879670000000     0.816700000000     0.609600000000    -0.234395   
O270     O      0.861700000000     0.826300000000     0.555730000000    -0.236313   
O271     O      0.854670000000     0.777390000000     0.606120000000    -0.236229   
O272     O      0.823400000000     0.802970000000     0.592060000000    -0.238403   
O273     O      0.896540000000     0.593680000000     0.688310000000    -0.231543   
O274     O      0.866560000000     0.571260000000     0.635330000000    -0.230896   
O275     O      0.926910000000     0.584280000000     0.657370000000    -0.231448   
O276     O      0.885760000000     0.625010000000     0.656670000000    -0.239741   
O277     O      0.875660000000     0.613130000000     0.629390000000    -0.231656   
O278     O      0.918620000000     0.598460000000     0.630590000000    -0.239993   
O279     O      0.869440000000     0.581380000000     0.678740000000    -0.239893   
O280     O      0.893560000000     0.556830000000     0.641650000000    -0.238999   
O281     O      0.780060000000     0.550540000000     0.874090000000    -0.231767   
O282     O      0.841170000000     0.568040000000     0.846040000000    -0.233921   
O283     O      0.808640000000     0.520550000000     0.862560000000    -0.231353   
O284     O      0.822880000000     0.553430000000     0.903040000000    -0.238191   
O285     O      0.830150000000     0.580420000000     0.889380000000    -0.232822   
O286     O      0.837660000000     0.528170000000     0.871540000000    -0.236966   
O287     O      0.789320000000     0.579110000000     0.866200000000    -0.237432   
O288     O      0.813620000000     0.561220000000     0.832800000000    -0.239318   
O289     O      0.898870000000     0.347890000000     0.796270000000    -0.231492   
O290     O      0.865780000000     0.365320000000     0.845340000000    -0.233844   
O291     O      0.926970000000     0.343960000000     0.826720000000    -0.229915   
O292     O      0.886480000000     0.308790000000     0.830080000000    -0.238418   
O293     O      0.873990000000     0.322980000000     0.855180000000    -0.231165   
O294     O      0.916750000000     0.339200000000     0.856130000000    -0.238318   
O295     O      0.869390000000     0.339930000000     0.803090000000    -0.237396   
O296     O      0.892920000000     0.378510000000     0.837460000000    -0.241244   
O297     O      0.859720000000     0.271650000000     0.412940000000    -0.229409   
O298     O      0.887730000000     0.322390000000     0.385610000000    -0.232868   
O299     O      0.853480000000     0.299580000000     0.441420000000    -0.232396   
O300     O      0.830990000000     0.306950000000     0.393370000000    -0.240146   
O301     O      0.844590000000     0.334660000000     0.395720000000    -0.235425   
O302     O      0.868990000000     0.326130000000     0.437190000000    -0.236586   
O303     O      0.868710000000     0.280410000000     0.384040000000    -0.237375   
O304     O      0.899340000000     0.306910000000     0.410340000000    -0.238348   
O305     O      0.779890000000     0.388340000000     0.610760000000    -0.232313   
O306     O      0.826730000000     0.358990000000     0.642180000000    -0.233503   
O307     O      0.809350000000     0.417890000000     0.624220000000    -0.23344    
O308     O      0.809400000000     0.366560000000     0.587030000000    -0.239203   
O309     O      0.839170000000     0.368150000000     0.596470000000    -0.234904   
O310     O      0.832720000000     0.410560000000     0.604610000000    -0.237192   
O311     O      0.786140000000     0.367600000000     0.633310000000    -0.236484   
O312     O      0.832450000000     0.388660000000     0.649030000000    -0.239042   
O313     O      0.310550000000     0.921660000000     0.126820000000    -0.231206   
O314     O      0.336090000000     0.866980000000     0.101640000000    -0.23102    
O315     O      0.279280000000     0.891600000000     0.119960000000    -0.231256   
O316     O      0.322540000000     0.890750000000     0.158120000000    -0.239457   
O317     O      0.333360000000     0.864560000000     0.145270000000    -0.230785   
O318     O      0.288250000000     0.864270000000     0.131680000000    -0.239662   
O319     O      0.338000000000     0.912100000000     0.115190000000    -0.239604   
O320     O      0.310630000000     0.879550000000     0.088490000000    -0.239645   
O321     O      0.898840000000     0.087580000000     0.301490000000    -0.230697   
O322     O      0.879810000000     0.114920000000     0.362030000000    -0.233536   
O323     O      0.928210000000     0.095420000000     0.330170000000    -0.230135   
O324     O      0.895440000000     0.058380000000     0.345840000000    -0.239491   
O325     O      0.867310000000     0.071080000000     0.350750000000    -0.233722   
O326     O      0.919650000000     0.092490000000     0.360400000000    -0.237085   
O327     O      0.869200000000     0.092520000000     0.310420000000    -0.237156   
O328     O      0.886040000000     0.126780000000     0.333580000000    -0.239829   
O329     O      0.035230000000     0.101520000000     0.827850000000    -0.234767   
O330     O      0.082780000000     0.115650000000     0.861160000000    -0.236005   
O331     O      0.064440000000     0.079220000000     0.802700000000    -0.236177   
O332     O      0.071290000000     0.061680000000     0.849930000000    -0.233715   
O333     O      0.098900000000     0.075360000000     0.844860000000    -0.235882   
O334     O      0.087220000000     0.100350000000     0.804650000000    -0.234338   
O335     O      0.040540000000     0.088020000000     0.855710000000    -0.233388   
O336     O      0.074270000000     0.128770000000     0.833970000000    -0.236245   
O337     O      0.114000000000     0.159440000000     0.415330000000    -0.231525   
O338     O      0.085890000000     0.107950000000     0.387060000000    -0.233479   
O339     O      0.122530000000     0.128630000000     0.442540000000    -0.234174   
O340     O      0.140660000000     0.122430000000     0.392240000000    -0.239376   
O341     O      0.128070000000     0.095320000000     0.400400000000    -0.236966   
O342     O      0.099190000000     0.108240000000     0.439560000000    -0.235786   
O343     O      0.105340000000     0.151260000000     0.386180000000    -0.237573   
O344     O      0.073620000000     0.125470000000     0.409990000000    -0.236937   
O345     O      0.151300000000     0.010930000000     0.626030000000    -0.230743   
O346     O      0.123330000000     0.063140000000     0.599780000000    -0.232483   
O347     O      0.180730000000     0.040210000000     0.619960000000    -0.230508   
O348     O      0.127730000000     0.068330000000     0.644640000000    -0.232326   
O349     O      0.134770000000     0.040510000000     0.656500000000    -0.239882   
O350     O      0.172070000000     0.067180000000     0.632780000000    -0.238578   
O351     O      0.123960000000     0.018990000000     0.613000000000    -0.238277   
O352     O      0.151690000000     0.055640000000     0.588910000000    -0.240441   
O353     O      0.783170000000     0.048980000000     0.118210000000    -0.231761   
O354     O      0.835750000000     0.079760000000     0.101270000000    -0.232449   
O355     O      0.814080000000     0.019720000000     0.116490000000    -0.229843   
O356     O      0.816650000000     0.056240000000     0.156800000000    -0.239341   
O357     O      0.840970000000     0.071230000000     0.144010000000    -0.230772   
O358     O      0.842260000000     0.029140000000     0.126390000000    -0.239271   
O359     O      0.792030000000     0.078420000000     0.122010000000    -0.239302   
O360     O      0.826290000000     0.054500000000     0.085800000000    -0.240676   
O361     O      0.625300000000     0.169970000000     0.093520000000    -0.232795   
O362     O      0.635110000000     0.114220000000     0.080010000000    -0.237416   
O363     O      0.624180000000     0.143200000000     0.048490000000    -0.236865   
O364     O      0.584580000000     0.140250000000     0.106950000000    -0.238662   
O365     O      0.584770000000     0.115530000000     0.088120000000    -0.234849   
O366     O      0.595030000000     0.132040000000     0.050010000000    -0.233635   
O367     O      0.597820000000     0.173130000000     0.078780000000    -0.236492   
O368     O      0.636790000000     0.132530000000     0.105270000000    -0.23383    
O369     O      0.312520000000     0.012750000000     0.359510000000    -0.235635   
O370     O      0.340720000000     0.051520000000     0.398800000000    -0.233656   
O371     O      0.283930000000     0.042510000000     0.384830000000    -0.23731    
O372     O      0.341430000000     0.043150000000     0.345250000000    -0.238587   
O373     O      0.326260000000     0.070090000000     0.346650000000    -0.235066   
O374     O      0.286460000000     0.056470000000     0.356820000000    -0.234527   
O375     O      0.328230000000     0.015450000000     0.386660000000    -0.232059   
O376     O      0.316760000000     0.071240000000     0.397190000000    -0.237948   
O377     O      0.437130000000     0.095740000000     0.169080000000    -0.231885   
O378     O      0.386170000000     0.113530000000     0.138780000000    -0.232324   
O379     O      0.407650000000     0.084350000000     0.197640000000    -0.231993   
O380     O      0.401990000000     0.056740000000     0.156090000000    -0.238582   
O381     O      0.376740000000     0.072020000000     0.145900000000    -0.232664   
O382     O      0.378990000000     0.094310000000     0.190080000000    -0.237718   
O383     O      0.429200000000     0.089810000000     0.139190000000    -0.237876   
O384     O      0.398700000000     0.126640000000     0.164390000000    -0.238838   


