data_structure

_audit_creation_method RASPA-1.0
_audit_creation_date 2023-5-22
_audit_author_name 'Poobodin Mano'

_cell_length_a    50.386
_cell_length_b    38.6785
_cell_length_c    43.6102
_cell_angle_alpha 90.0011
_cell_angle_beta  89.9994
_cell_angle_gamma 89.9999
_cell_volume      84990

_symmetry_cell_setting          triclinic
_symmetry_space_group_name_Hall 'P 1'
_symmetry_space_group_name_H-M  'P 1'
_symmetry_Int_Tables_number     1

_symmetry_equiv_pos_as_xyz 'x,y,z'

loop_
_atom_site_label
_atom_site_type_symbol
_atom_site_fract_x
_atom_site_fract_y
_atom_site_fract_z
_atom_site_charge
C1       C      0.433120000000     0.049290000000     0.233090000000     0.286828   
C2       C      0.365910000000     0.130070000000     0.189620000000     0.28747    
C3       C      0.411330000000     0.039810000000     0.135200000000     0.289033   
C4       C      0.344020000000     0.025450000000     0.218590000000     0.28832    
C5       C      0.118280000000     0.866770000000     0.372690000000     0.291573   
C6       C      0.182160000000     0.944730000000     0.330710000000     0.284537   
C7       C      0.093290000000     0.974810000000     0.352410000000     0.285572   
C8       C      0.161130000000     0.962420000000     0.430090000000     0.290072   
C9       C      0.280420000000     0.142890000000     0.678520000000     0.287069   
C10      C      0.214110000000     0.056810000000     0.722950000000     0.287898   
C11      C      0.242510000000     0.051550000000     0.626510000000     0.288036   
C12      C      0.303590000000     0.043550000000     0.719620000000     0.288605   
C13      C      0.030840000000     0.876030000000     0.880350000000     0.287638   
C14      C      0.964980000000     0.964440000000     0.837050000000     0.288089   
C15      C      0.991800000000     0.963570000000     0.934100000000     0.2878     
C16      C      0.052740000000     0.977880000000     0.840240000000     0.288105   
C17      C      0.363510000000     0.380140000000     0.675780000000     0.287242   
C18      C      0.432550000000     0.464160000000     0.716060000000     0.287832   
C19      C      0.401340000000     0.468380000000     0.620270000000     0.288446   
C20      C      0.343530000000     0.482040000000     0.715590000000     0.288651   
C21      C      0.182380000000     0.555510000000     0.835640000000     0.28799    
C22      C      0.114050000000     0.638900000000     0.878870000000     0.287253   
C23      C      0.093480000000     0.538210000000     0.836490000000     0.28876    
C24      C      0.152270000000     0.548110000000     0.931290000000     0.28817    
C25      C      0.028740000000     0.633260000000     0.366270000000     0.288264   
C26      C      0.963180000000     0.548880000000     0.322140000000     0.287672   
C27      C      0.051520000000     0.527060000000     0.337060000000     0.287934   
C28      C      0.983440000000     0.543630000000     0.419840000000     0.288683   
C29      C      0.276320000000     0.363540000000     0.184960000000     0.291419   
C30      C      0.213460000000     0.442350000000     0.227320000000     0.284739   
C31      C      0.302810000000     0.471030000000     0.204340000000     0.285666   
C32      C      0.234250000000     0.459310000000     0.127470000000     0.290089   
C33      C      0.119860000000     0.487550000000     0.327800000000    -0.0566756  
C34      C      0.120220000000     0.479910000000     0.296290000000     0.0218457  
C35      C      0.097370000000     0.486300000000     0.278730000000    -0.0565956  
C36      C      0.074910000000     0.501040000000     0.292160000000     0.013028   
C37      C      0.074710000000     0.509370000000     0.323510000000    -0.0732358  
C38      C      0.097240000000     0.501940000000     0.341340000000     0.0126515  
C39      C      0.144770000000     0.467400000000     0.281190000000     0.0214255  
C40      C      0.169100000000     0.483980000000     0.286750000000    -0.0560331  
C41      C      0.191670000000     0.475020000000     0.269920000000     0.0120975  
C42      C      0.190410000000     0.449080000000     0.247410000000    -0.0716317  
C43      C      0.166380000000     0.431370000000     0.242860000000     0.011867   
C44      C      0.143730000000     0.440590000000     0.259470000000    -0.0563195  
C45      C      0.415380000000     0.497350000000     0.273330000000    -0.0563031  
C46      C      0.396690000000     0.522540000000     0.264780000000     0.0217165  
C47      C      0.400400000000     0.556820000000     0.274640000000    -0.0563183  
C48      C      0.422230000000     0.565600000000     0.292910000000     0.0123815  
C49      C      0.440630000000     0.540210000000     0.301850000000    -0.0722924  
C50      C      0.437060000000     0.506070000000     0.291680000000     0.0125029  
C51      C      0.372840000000     0.512470000000     0.246870000000     0.0214512  
C52      C      0.374930000000     0.488870000000     0.222470000000    -0.0561657  
C53      C      0.352210000000     0.476500000000     0.207750000000     0.0119194  
C54      C      0.326890000000     0.487390000000     0.217180000000    -0.0716639  
C55      C      0.324830000000     0.512130000000     0.240680000000     0.0120511  
C56      C      0.347580000000     0.524580000000     0.255340000000    -0.0558472  
C57      C      0.187670000000     0.546390000000     0.007930000000    -0.0561984  
C58      C      0.185500000000     0.511350000000     0.016240000000     0.0214302  
C59      C      0.171450000000     0.488840000000     0.996760000000    -0.0557053  
C60      C      0.160110000000     0.500960000000     0.969550000000     0.012473   
C61      C      0.162730000000     0.535820000000     0.961050000000    -0.0727728  
C62      C      0.176500000000     0.558450000000     0.980600000000     0.0125465  
C63      C      0.198030000000     0.498230000000     0.044900000000     0.0219918  
C64      C      0.222950000000     0.510620000000     0.054530000000    -0.0563768  
C65      C      0.234760000000     0.498050000000     0.081340000000     0.0130679  
C66      C      0.222000000000     0.472640000000     0.099000000000    -0.0742414  
C67      C      0.197150000000     0.460200000000     0.089400000000     0.01305    
C68      C      0.185260000000     0.472930000000     0.062760000000    -0.0566208  
C69      C      0.421340000000     0.524150000000     0.552700000000    -0.05609    
C70      C      0.433790000000     0.499970000000     0.533340000000     0.0217815  
C71      C      0.434400000000     0.465060000000     0.542360000000    -0.0562296  
C72      C      0.423440000000     0.454730000000     0.570330000000     0.0126528  
C73      C      0.411410000000     0.479010000000     0.589840000000    -0.0730149  
C74      C      0.410190000000     0.513760000000     0.580580000000     0.0126912  
C75      C      0.446490000000     0.511180000000     0.504150000000     0.0217135  
C76      C      0.434860000000     0.537070000000     0.485910000000    -0.0561795  
C77      C      0.446960000000     0.547780000000     0.458670000000     0.0124669  
C78      C      0.970880000000     0.532670000000     0.448920000000    -0.0730457  
C79      C      0.982510000000     0.506760000000     0.467030000000     0.0128744  
C80      C      0.970530000000     0.496250000000     0.494390000000    -0.0560533  
C81      C      0.297160000000     0.501050000000     0.781590000000    -0.056681   
C82      C      0.276940000000     0.520090000000     0.767210000000     0.0217036  
C83      C      0.279580000000     0.528430000000     0.735980000000    -0.0562718  
C84      C      0.301550000000     0.516810000000     0.719230000000     0.0126819  
C85      C      0.321320000000     0.496820000000     0.733480000000    -0.0730235  
C86      C      0.319100000000     0.489590000000     0.764950000000     0.0125867  
C87      C      0.252680000000     0.529640000000     0.784530000000     0.0216999  
C88      C      0.240450000000     0.505200000000     0.803720000000    -0.0565569  
C89      C      0.217620000000     0.513710000000     0.820150000000     0.012591   
C90      C      0.206510000000     0.546920000000     0.817900000000    -0.0728671  
C91      C      0.218650000000     0.571440000000     0.798680000000     0.0126469  
C92      C      0.241480000000     0.562820000000     0.782020000000    -0.0563588  
C93      C      0.991790000000     0.457470000000     0.769510000000    -0.0559997  
C94      C      0.002810000000     0.490760000000     0.766990000000     0.0214171  
C95      C      0.990470000000     0.515030000000     0.747710000000    -0.0563132  
C96      C      0.967700000000     0.506270000000     0.731270000000     0.0124794  
C97      C      0.456730000000     0.472990000000     0.733610000000    -0.0728388  
C98      C      0.469010000000     0.448620000000     0.752870000000     0.0125598  
C99      C      0.026950000000     0.500560000000     0.784460000000     0.0217858  
C100     C      0.029640000000     0.491840000000     0.815610000000    -0.0563335  
C101     C      0.051550000000     0.503400000000     0.832470000000     0.0127813  
C102     C      0.071220000000     0.523760000000     0.818460000000    -0.073075   
C103     C      0.068920000000     0.531510000000     0.787100000000     0.0126024  
C104     C      0.047040000000     0.520070000000     0.770310000000    -0.0566754  
C105     C      0.079470000000     0.803420000000     0.895810000000    -0.0565234  
C106     C      0.065860000000     0.774620000000     0.884030000000     0.0217043  
C107     C      0.040260000000     0.779280000000     0.871880000000    -0.0562202  
C108     C      0.028710000000     0.812140000000     0.871020000000     0.0125838  
C109     C      0.042450000000     0.840980000000     0.882480000000    -0.0727997  
C110     C      0.067850000000     0.836220000000     0.895140000000     0.012406   
C111     C      0.078540000000     0.739960000000     0.883820000000     0.0216206  
C112     C      0.105150000000     0.736090000000     0.874700000000    -0.0561792  
C113     C      0.116810000000     0.703320000000     0.873430000000     0.0125371  
C114     C      0.102170000000     0.673760000000     0.881440000000    -0.0724287  
C115     C      0.075710000000     0.677700000000     0.891080000000     0.012249   
C116     C      0.064000000000     0.710420000000     0.892150000000    -0.0563817  
C117     C      0.289640000000     0.239840000000     0.685370000000    -0.0561281  
C118     C      0.315310000000     0.244300000000     0.673340000000     0.0216113  
C119     C      0.329020000000     0.215280000000     0.662170000000    -0.0563574  
C120     C      0.317450000000     0.182470000000     0.663330000000     0.0121893  
C121     C      0.291980000000     0.177920000000     0.675860000000    -0.072321   
C122     C      0.278130000000     0.206980000000     0.686700000000     0.0124292  
C123     C      0.327940000000     0.279000000000     0.673010000000     0.021627   
C124     C      0.313380000000     0.308330000000     0.664160000000    -0.0564278  
C125     C      0.325090000000     0.341080000000     0.664600000000     0.0122202  
C126     C      0.351570000000     0.345250000000     0.674090000000    -0.0723942  
C127     C      0.366210000000     0.315900000000     0.682680000000     0.0124851  
C128     C      0.354550000000     0.283110000000     0.682060000000    -0.0561208  
C129     C      0.410100000000     0.019390000000     0.803500000000    -0.0565213  
C130     C      0.395810000000     0.995220000000     0.786010000000     0.0217089  
C131     C      0.404760000000     0.960810000000     0.784900000000    -0.0562847  
C132     C      0.427320000000     0.950720000000     0.801360000000     0.0126524  
C133     C      0.441440000000     0.974900000000     0.819050000000    -0.0727301  
C134     C      0.432670000000     0.009370000000     0.819780000000     0.0124865  
C135     C      0.371560000000     0.006090000000     0.769250000000     0.0216687  
C136     C      0.353000000000     0.028000000000     0.783430000000    -0.0565978  
C137     C      0.330730000000     0.039590000000     0.767430000000     0.0125478  
C138     C      0.326510000000     0.029620000000     0.736830000000    -0.0729811  
C139     C      0.344770000000     0.007180000000     0.722770000000     0.0126542  
C140     C      0.367050000000     0.995440000000     0.738870000000    -0.0562099  
C141     C      0.159520000000     0.002700000000     0.758020000000    -0.0564984  
C142     C      0.144470000000     0.027520000000     0.773850000000     0.0216514  
C143     C      0.152840000000     0.062200000000     0.773450000000    -0.0561868  
C144     C      0.175550000000     0.071890000000     0.757030000000     0.012476   
C145     C      0.190380000000     0.047010000000     0.740940000000    -0.0727614  
C146     C      0.182200000000     0.012300000000     0.741810000000     0.0124532  
C147     C      0.120050000000     0.016910000000     0.790390000000     0.0216532  
C148     C      0.102270000000     0.993600000000     0.776670000000    -0.0565902  
C149     C      0.080140000000     0.981650000000     0.792680000000     0.0124519  
C150     C      0.075250000000     0.992670000000     0.822860000000    -0.072756   
C151     C      0.092590000000     0.016740000000     0.836370000000     0.0124753  
C152     C      0.114760000000     0.028840000000     0.820230000000    -0.05616    
C153     C      0.049880000000     0.724290000000     0.345280000000    -0.056146   
C154     C      0.066850000000     0.732850000000     0.369740000000     0.0215527  
C155     C      0.070670000000     0.708600000000     0.393350000000    -0.0563256  
C156     C      0.058010000000     0.676470000000     0.392390000000     0.0124728  
C157     C      0.041250000000     0.667830000000     0.367800000000    -0.0732727  
C158     C      0.037220000000     0.692140000000     0.344310000000     0.0124505  
C159     C      0.080580000000     0.766880000000     0.370610000000     0.0219361  
C160     C      0.091370000000     0.781300000000     0.343750000000    -0.0566929  
C161     C      0.103970000000     0.813490000000     0.344510000000     0.0131461  
C162     C      0.106080000000     0.831980000000     0.372140000000    -0.0741499  
C163     C      0.095570000000     0.817430000000     0.399050000000     0.013374   
C164     C      0.082960000000     0.785260000000     0.398300000000    -0.0566309  
C165     C      0.171960000000     0.013570000000     0.503190000000    -0.0563275  
C166     C      0.196980000000     0.001510000000     0.512800000000     0.0219271  
C167     C      0.209990000000     0.976490000000     0.494840000000    -0.0565125  
C168     C      0.198230000000     0.963710000000     0.468150000000     0.0130576  
C169     C      0.173280000000     0.975830000000     0.458580000000    -0.0742744  
C170     C      0.160300000000     0.000980000000     0.476310000000     0.0131445  
C171     C      0.209370000000     0.014670000000     0.541550000000     0.0216254  
C172     C      0.206750000000     0.049590000000     0.550100000000    -0.0561104  
C173     C      0.217820000000     0.061670000000     0.577470000000     0.0125282  
C174     C      0.231950000000     0.039210000000     0.596810000000    -0.0728668  
C175     C      0.235000000000     0.004480000000     0.588090000000     0.0125177  
C176     C      0.223740000000     0.992320000000     0.560850000000    -0.0559891  
C177     C      0.304300000000     0.278610000000     0.213790000000    -0.0566891  
C178     C      0.313500000000     0.263340000000     0.186530000000     0.0219492  
C179     C      0.309630000000     0.280900000000     0.158660000000    -0.0566428  
C180     C      0.297170000000     0.313180000000     0.158100000000     0.0133372  
C181     C      0.288260000000     0.328600000000     0.185400000000    -0.0739247  
C182     C      0.291800000000     0.310880000000     0.213230000000     0.0130774  
C183     C      0.327210000000     0.229300000000     0.187160000000     0.0215122  
C184     C      0.345790000000     0.221610000000     0.210240000000    -0.0561421  
C185     C      0.358600000000     0.189540000000     0.210880000000     0.0122948  
C186     C      0.353070000000     0.164450000000     0.188470000000    -0.0727114  
C187     C      0.334620000000     0.172200000000     0.165290000000     0.0122759  
C188     C      0.321850000000     0.204260000000     0.164630000000    -0.0562983  
C189     C      0.448170000000     0.041230000000     0.059440000000    -0.0561466  
C190     C      0.447140000000     0.006280000000     0.050570000000     0.0217291  
C191     C      0.434220000000     0.982510000000     0.069910000000    -0.0562133  
C192     C      0.422460000000     0.993440000000     0.097270000000     0.0127683  
C193     C      0.423510000000     0.028350000000     0.106060000000    -0.0733923  
C194     C      0.436560000000     0.052120000000     0.086910000000     0.0126819  
C195     C      0.959100000000     0.994760000000     0.021070000000     0.0217602  
C196     C      0.446300000000     0.969730000000     0.002940000000    -0.0563903  
C197     C      0.957190000000     0.959280000000     0.974990000000     0.0126045  
C198     C      0.981050000000     0.973750000000     0.964350000000    -0.0728029  
C199     C      0.994000000000     0.998590000000     0.982460000000     0.0128092  
C200     C      0.983190000000     0.008910000000     0.010560000000    -0.0562032  
C201     C      0.251600000000     0.941260000000     0.297830000000    -0.056349   
C202     C      0.250710000000     0.967940000000     0.275970000000     0.0213966  
C203     C      0.226570000000     0.985080000000     0.270670000000    -0.0559868  
C204     C      0.204050000000     0.976770000000     0.287840000000     0.0120612  
C205     C      0.205170000000     0.950930000000     0.310450000000    -0.0715683  
C206     C      0.228990000000     0.932690000000     0.314790000000     0.0118808  
C207     C      0.275260000000     0.979760000000     0.260450000000     0.0219314  
C208     C      0.298350000000     0.985790000000     0.277670000000    -0.0566634  
C209     C      0.320830000000     0.000010000000     0.263860000000     0.0131427  
C210     C      0.320790000000     0.008190000000     0.232480000000    -0.0732776  
C211     C      0.298010000000     0.001090000000     0.214980000000     0.0127315  
C212     C      0.275370000000     0.987210000000     0.228900000000    -0.0567777  
C213     C      0.996970000000     0.059200000000     0.278380000000    -0.0562354  
C214     C      0.999810000000     0.026000000000     0.291140000000     0.0217641  
C215     C      0.980200000000     0.001040000000     0.285260000000    -0.056305   
C216     C      0.958480000000     0.008840000000     0.266690000000     0.012507   
C217     C      0.955780000000     0.041840000000     0.253590000000    -0.0722689  
C218     C      0.975090000000     0.067080000000     0.259850000000     0.012213   
C219     C      0.023710000000     0.016560000000     0.309210000000     0.021436   
C220     C      0.049120000000     0.026210000000     0.299060000000    -0.0559005  
C221     C      0.071780000000     0.013800000000     0.313910000000     0.0120417  
C222     C      0.069480000000     0.991540000000     0.339260000000    -0.0716416  
C223     C      0.044080000000     0.983290000000     0.350340000000     0.011927   
C224     C      0.021440000000     0.995650000000     0.335460000000    -0.0562224  
C225     C      0.933120000000     0.049290000000     0.233090000000     0.286835   
C226     C      0.865910000000     0.130070000000     0.189620000000     0.28747    
C227     C      0.911330000000     0.039810000000     0.135200000000     0.289041   
C228     C      0.844020000000     0.025450000000     0.218590000000     0.288324   
C229     C      0.618280000000     0.866770000000     0.372690000000     0.291574   
C230     C      0.682160000000     0.944730000000     0.330710000000     0.284547   
C231     C      0.593290000000     0.974810000000     0.352410000000     0.285577   
C232     C      0.661130000000     0.962420000000     0.430090000000     0.290074   
C233     C      0.780420000000     0.142890000000     0.678530000000     0.287075   
C234     C      0.714110000000     0.056810000000     0.722950000000     0.287898   
C235     C      0.742510000000     0.051550000000     0.626510000000     0.288031   
C236     C      0.803590000000     0.043550000000     0.719620000000     0.288603   
C237     C      0.530840000000     0.876030000000     0.880350000000     0.287643   
C238     C      0.464980000000     0.964440000000     0.837050000000     0.288015   
C239     C      0.491800000000     0.963570000000     0.934100000000     0.287817   
C240     C      0.552740000000     0.977880000000     0.840240000000     0.287968   
C241     C      0.863510000000     0.380140000000     0.675780000000     0.287242   
C242     C      0.932550000000     0.464160000000     0.716060000000     0.287808   
C243     C      0.901340000000     0.468380000000     0.620270000000     0.288464   
C244     C      0.843530000000     0.482040000000     0.715590000000     0.288663   
C245     C      0.682380000000     0.555510000000     0.835640000000     0.287993   
C246     C      0.614050000000     0.638900000000     0.878870000000     0.287234   
C247     C      0.593480000000     0.538210000000     0.836490000000     0.288585   
C248     C      0.652270000000     0.548110000000     0.931290000000     0.28817    
C249     C      0.528740000000     0.633260000000     0.366270000000     0.288261   
C250     C      0.463180000000     0.548880000000     0.322140000000     0.287672   
C251     C      0.551520000000     0.527060000000     0.337060000000     0.287938   
C252     C      0.483440000000     0.543630000000     0.419840000000     0.288579   
C253     C      0.776320000000     0.363540000000     0.184960000000     0.291421   
C254     C      0.713460000000     0.442350000000     0.227320000000     0.284739   
C255     C      0.802810000000     0.471030000000     0.204340000000     0.285662   
C256     C      0.734250000000     0.459310000000     0.127470000000     0.290089   
C257     C      0.619860000000     0.487550000000     0.327800000000    -0.0566757  
C258     C      0.620220000000     0.479910000000     0.296290000000     0.0218438  
C259     C      0.597370000000     0.486310000000     0.278730000000    -0.0565964  
C260     C      0.574910000000     0.501040000000     0.292160000000     0.0130674  
C261     C      0.574710000000     0.509370000000     0.323510000000    -0.0732482  
C262     C      0.597240000000     0.501940000000     0.341340000000     0.0126586  
C263     C      0.644770000000     0.467400000000     0.281190000000     0.0214274  
C264     C      0.669100000000     0.483980000000     0.286750000000    -0.0560329  
C265     C      0.691670000000     0.475020000000     0.269920000000     0.0120981  
C266     C      0.690410000000     0.449080000000     0.247410000000    -0.0716313  
C267     C      0.666380000000     0.431370000000     0.242860000000     0.0118684  
C268     C      0.643730000000     0.440590000000     0.259470000000    -0.0563193  
C269     C      0.915380000000     0.497350000000     0.273320000000    -0.0563794  
C270     C      0.896690000000     0.522540000000     0.264780000000     0.0217512  
C271     C      0.900400000000     0.556820000000     0.274640000000    -0.0563248  
C272     C      0.922230000000     0.565600000000     0.292910000000     0.0123794  
C273     C      0.940630000000     0.540210000000     0.301840000000    -0.0722502  
C274     C      0.937060000000     0.506070000000     0.291670000000     0.0125237  
C275     C      0.872840000000     0.512470000000     0.246870000000     0.0214563  
C276     C      0.874940000000     0.488870000000     0.222460000000    -0.0562295  
C277     C      0.852210000000     0.476500000000     0.207740000000     0.0119049  
C278     C      0.826890000000     0.487390000000     0.217180000000    -0.0716497  
C279     C      0.824830000000     0.512130000000     0.240680000000     0.0120493  
C280     C      0.847580000000     0.524580000000     0.255340000000    -0.0558462  
C281     C      0.687670000000     0.546390000000     0.007930000000    -0.0561977  
C282     C      0.685500000000     0.511350000000     0.016240000000     0.021431   
C283     C      0.671450000000     0.488840000000     0.996760000000    -0.0557042  
C284     C      0.660110000000     0.500960000000     0.969550000000     0.012474   
C285     C      0.662730000000     0.535820000000     0.961050000000    -0.072772   
C286     C      0.676500000000     0.558450000000     0.980600000000     0.0125472  
C287     C      0.698030000000     0.498230000000     0.044900000000     0.0219925  
C288     C      0.722950000000     0.510620000000     0.054530000000    -0.0563762  
C289     C      0.734760000000     0.498050000000     0.081340000000     0.0130684  
C290     C      0.722000000000     0.472640000000     0.099000000000    -0.0742405  
C291     C      0.697150000000     0.460200000000     0.089400000000     0.0130507  
C292     C      0.685260000000     0.472930000000     0.062760000000    -0.05662    
C293     C      0.921340000000     0.524150000000     0.552700000000    -0.0561253  
C294     C      0.933790000000     0.499970000000     0.533340000000     0.0217999  
C295     C      0.934400000000     0.465050000000     0.542360000000    -0.0562813  
C296     C      0.923440000000     0.454730000000     0.570330000000     0.0127022  
C297     C      0.911410000000     0.479010000000     0.589840000000    -0.0730629  
C298     C      0.910190000000     0.513750000000     0.580580000000     0.0127617  
C299     C      0.946490000000     0.511180000000     0.504150000000     0.0217199  
C300     C      0.934860000000     0.537070000000     0.485910000000    -0.0561413  
C301     C      0.946960000000     0.547780000000     0.458670000000     0.0124968  
C302     C      0.470880000000     0.532670000000     0.448920000000    -0.0729716  
C303     C      0.482520000000     0.506770000000     0.467030000000     0.0127177  
C304     C      0.470530000000     0.496250000000     0.494390000000    -0.0559934  
C305     C      0.797160000000     0.501050000000     0.781590000000    -0.0567087  
C306     C      0.776940000000     0.520090000000     0.767210000000     0.0217178  
C307     C      0.779580000000     0.528430000000     0.735980000000    -0.0562837  
C308     C      0.801550000000     0.516810000000     0.719230000000     0.0126988  
C309     C      0.821320000000     0.496820000000     0.733480000000    -0.0730559  
C310     C      0.819100000000     0.489590000000     0.764940000000     0.0126409  
C311     C      0.752680000000     0.529640000000     0.784530000000     0.0216945  
C312     C      0.740450000000     0.505200000000     0.803720000000    -0.0565525  
C313     C      0.717620000000     0.513710000000     0.820150000000     0.0125878  
C314     C      0.706510000000     0.546920000000     0.817900000000    -0.0728598  
C315     C      0.718650000000     0.571440000000     0.798680000000     0.012646   
C316     C      0.741480000000     0.562820000000     0.782020000000    -0.0563549  
C317     C      0.491790000000     0.457470000000     0.769510000000    -0.0562449  
C318     C      0.502810000000     0.490760000000     0.766990000000     0.0216507  
C319     C      0.490470000000     0.515030000000     0.747710000000    -0.0564806  
C320     C      0.467700000000     0.506270000000     0.731270000000     0.0125594  
C321     C      0.956730000000     0.472990000000     0.733610000000    -0.0727615  
C322     C      0.969010000000     0.448620000000     0.752870000000     0.0124555  
C323     C      0.526950000000     0.500570000000     0.784460000000     0.0216993  
C324     C      0.529640000000     0.491840000000     0.815610000000    -0.0562696  
C325     C      0.551550000000     0.503400000000     0.832470000000     0.0127274  
C326     C      0.571220000000     0.523760000000     0.818460000000    -0.0729755  
C327     C      0.568920000000     0.531510000000     0.787090000000     0.0125209  
C328     C      0.547040000000     0.520080000000     0.770310000000    -0.0566147  
C329     C      0.579470000000     0.803420000000     0.895800000000    -0.0565107  
C330     C      0.565860000000     0.774620000000     0.884030000000     0.021723   
C331     C      0.540260000000     0.779280000000     0.871880000000    -0.0562416  
C332     C      0.528710000000     0.812140000000     0.871020000000     0.0126336  
C333     C      0.542450000000     0.840980000000     0.882480000000    -0.0728107  
C334     C      0.567850000000     0.836220000000     0.895140000000     0.012407   
C335     C      0.578540000000     0.739960000000     0.883820000000     0.0215927  
C336     C      0.605150000000     0.736090000000     0.874700000000    -0.0561174  
C337     C      0.616820000000     0.703320000000     0.873430000000     0.0124395  
C338     C      0.602170000000     0.673760000000     0.881440000000    -0.0723715  
C339     C      0.575710000000     0.677700000000     0.891080000000     0.0122231  
C340     C      0.564000000000     0.710420000000     0.892150000000    -0.0563555  
C341     C      0.789640000000     0.239840000000     0.685370000000    -0.0561048  
C342     C      0.815310000000     0.244300000000     0.673340000000     0.021602   
C343     C      0.829020000000     0.215280000000     0.662170000000    -0.0563486  
C344     C      0.817450000000     0.182470000000     0.663330000000     0.0121815  
C345     C      0.791980000000     0.177920000000     0.675860000000    -0.0722965  
C346     C      0.778130000000     0.206980000000     0.686710000000     0.01239    
C347     C      0.827940000000     0.279000000000     0.673010000000     0.0216318  
C348     C      0.813380000000     0.308330000000     0.664160000000    -0.0564289  
C349     C      0.825090000000     0.341080000000     0.664600000000     0.0122215  
C350     C      0.851570000000     0.345250000000     0.674090000000    -0.0723933  
C351     C      0.866210000000     0.315900000000     0.682680000000     0.0124872  
C352     C      0.854550000000     0.283110000000     0.682060000000    -0.0561212  
C353     C      0.910100000000     0.019390000000     0.803500000000    -0.0565315  
C354     C      0.895810000000     0.995220000000     0.786010000000     0.0217049  
C355     C      0.904760000000     0.960810000000     0.784900000000    -0.0562475  
C356     C      0.927320000000     0.950720000000     0.801360000000     0.0126471  
C357     C      0.941440000000     0.974900000000     0.819040000000    -0.0727169  
C358     C      0.932670000000     0.009370000000     0.819770000000     0.0125107  
C359     C      0.871560000000     0.006090000000     0.769250000000     0.0216654  
C360     C      0.853000000000     0.028000000000     0.783420000000    -0.0565435  
C361     C      0.830730000000     0.039590000000     0.767430000000     0.0125314  
C362     C      0.826510000000     0.029620000000     0.736830000000    -0.0729763  
C363     C      0.844770000000     0.007180000000     0.722770000000     0.0126603  
C364     C      0.867050000000     0.995430000000     0.738870000000    -0.0562337  
C365     C      0.659520000000     0.002700000000     0.758020000000    -0.0564942  
C366     C      0.644470000000     0.027520000000     0.773850000000     0.0216439  
C367     C      0.652840000000     0.062200000000     0.773450000000    -0.0561824  
C368     C      0.675550000000     0.071890000000     0.757030000000     0.012475   
C369     C      0.690380000000     0.047010000000     0.740940000000    -0.0727591  
C370     C      0.682200000000     0.012300000000     0.741810000000     0.0124517  
C371     C      0.620040000000     0.016910000000     0.790390000000     0.0216855  
C372     C      0.602270000000     0.993600000000     0.776670000000    -0.0566057  
C373     C      0.580140000000     0.981650000000     0.792680000000     0.0124396  
C374     C      0.575250000000     0.992670000000     0.822860000000    -0.0727137  
C375     C      0.592590000000     0.016740000000     0.836370000000     0.0124662  
C376     C      0.614760000000     0.028840000000     0.820230000000    -0.0561723  
C377     C      0.549880000000     0.724290000000     0.345280000000    -0.0561388  
C378     C      0.566850000000     0.732850000000     0.369740000000     0.0215497  
C379     C      0.570670000000     0.708600000000     0.393350000000    -0.0563204  
C380     C      0.558010000000     0.676470000000     0.392390000000     0.0124722  
C381     C      0.541250000000     0.667830000000     0.367800000000    -0.0732634  
C382     C      0.537220000000     0.692140000000     0.344310000000     0.0124506  
C383     C      0.580580000000     0.766880000000     0.370610000000     0.021952   
C384     C      0.591360000000     0.781300000000     0.343750000000    -0.0566991  
C385     C      0.603970000000     0.813490000000     0.344510000000     0.0131405  
C386     C      0.606080000000     0.831980000000     0.372140000000    -0.0741483  
C387     C      0.595580000000     0.817430000000     0.399050000000     0.0133783  
C388     C      0.582960000000     0.785260000000     0.398300000000    -0.0566325  
C389     C      0.671960000000     0.013570000000     0.503190000000    -0.0563322  
C390     C      0.696980000000     0.001510000000     0.512800000000     0.0219388  
C391     C      0.709990000000     0.976490000000     0.494840000000    -0.0565364  
C392     C      0.698230000000     0.963710000000     0.468150000000     0.0130711  
C393     C      0.673280000000     0.975830000000     0.458580000000    -0.0742792  
C394     C      0.660300000000     0.000980000000     0.476310000000     0.0131502  
C395     C      0.709370000000     0.014670000000     0.541550000000     0.0216159  
C396     C      0.706750000000     0.049590000000     0.550100000000    -0.0561026  
C397     C      0.717820000000     0.061670000000     0.577470000000     0.0125218  
C398     C      0.731950000000     0.039210000000     0.596810000000    -0.0728523  
C399     C      0.735000000000     0.004480000000     0.588090000000     0.0124933  
C400     C      0.723740000000     0.992320000000     0.560850000000    -0.0559754  
C401     C      0.804300000000     0.278610000000     0.213790000000    -0.0566939  
C402     C      0.813500000000     0.263340000000     0.186530000000     0.0219529  
C403     C      0.809630000000     0.280900000000     0.158660000000    -0.0566444  
C404     C      0.797170000000     0.313180000000     0.158100000000     0.0133416  
C405     C      0.788260000000     0.328600000000     0.185400000000    -0.073931   
C406     C      0.791800000000     0.310880000000     0.213230000000     0.0130908  
C407     C      0.827210000000     0.229300000000     0.187160000000     0.021512   
C408     C      0.845790000000     0.221610000000     0.210240000000    -0.0561401  
C409     C      0.858600000000     0.189540000000     0.210880000000     0.0122956  
C410     C      0.853070000000     0.164450000000     0.188470000000    -0.0727096  
C411     C      0.834620000000     0.172200000000     0.165290000000     0.0122762  
C412     C      0.821850000000     0.204260000000     0.164630000000    -0.056297   
C413     C      0.948170000000     0.041230000000     0.059440000000    -0.0562048  
C414     C      0.947140000000     0.006290000000     0.050570000000     0.0217706  
C415     C      0.934220000000     0.982510000000     0.069910000000    -0.056221   
C416     C      0.922460000000     0.993440000000     0.097270000000     0.0127975  
C417     C      0.923510000000     0.028350000000     0.106060000000    -0.0734113  
C418     C      0.936560000000     0.052120000000     0.086910000000     0.0127144  
C419     C      0.459110000000     0.994760000000     0.021070000000     0.021813   
C420     C      0.946300000000     0.969740000000     0.002940000000    -0.0563136  
C421     C      0.457190000000     0.959280000000     0.974990000000     0.0126255  
C422     C      0.481050000000     0.973750000000     0.964350000000    -0.0727968  
C423     C      0.494000000000     0.998590000000     0.982460000000     0.012724   
C424     C      0.483190000000     0.008910000000     0.010570000000    -0.0562388  
C425     C      0.751600000000     0.941260000000     0.297830000000    -0.0562977  
C426     C      0.750710000000     0.967940000000     0.275970000000     0.0213931  
C427     C      0.726570000000     0.985080000000     0.270670000000    -0.0560236  
C428     C      0.704060000000     0.976770000000     0.287840000000     0.0121291  
C429     C      0.705170000000     0.950930000000     0.310450000000    -0.0715961  
C430     C      0.728990000000     0.932690000000     0.314790000000     0.0118714  
C431     C      0.775260000000     0.979760000000     0.260450000000     0.0219144  
C432     C      0.798360000000     0.985790000000     0.277670000000    -0.0566656  
C433     C      0.820830000000     0.000010000000     0.263860000000     0.0131673  
C434     C      0.820790000000     0.008190000000     0.232480000000    -0.0732857  
C435     C      0.798010000000     0.001090000000     0.214980000000     0.0127327  
C436     C      0.775370000000     0.987210000000     0.228900000000    -0.0567711  
C437     C      0.496960000000     0.059200000000     0.278380000000    -0.0562464  
C438     C      0.499810000000     0.026000000000     0.291140000000     0.0216668  
C439     C      0.480200000000     0.001040000000     0.285260000000    -0.0562637  
C440     C      0.458480000000     0.008840000000     0.266690000000     0.0124576  
C441     C      0.455780000000     0.041840000000     0.253590000000    -0.0722597  
C442     C      0.475090000000     0.067080000000     0.259850000000     0.0122151  
C443     C      0.523710000000     0.016560000000     0.309210000000     0.021524   
C444     C      0.549120000000     0.026210000000     0.299060000000    -0.0559299  
C445     C      0.571780000000     0.013800000000     0.313910000000     0.0120624  
C446     C      0.569480000000     0.991540000000     0.339260000000    -0.0716511  
C447     C      0.544080000000     0.983290000000     0.350340000000     0.0119484  
C448     C      0.521440000000     0.995650000000     0.335460000000    -0.0562477  
Cd1      Cd     0.388770000000     0.061720000000     0.192950000000     0.507432   
Cd2      Cd     0.138900000000     0.936520000000     0.373250000000     0.505685   
Cd3      Cd     0.259970000000     0.073870000000     0.686370000000     0.508108   
Cd4      Cd     0.010230000000     0.945240000000     0.873630000000     0.508478   
Cd5      Cd     0.385270000000     0.448780000000     0.681350000000     0.508017   
Cd6      Cd     0.135490000000     0.570350000000     0.871160000000     0.507992   
Cd7      Cd     0.006930000000     0.564220000000     0.362280000000     0.507293   
Cd8      Cd     0.256440000000     0.433600000000     0.184400000000     0.50573    
Cd9      Cd     0.888770000000     0.061720000000     0.192950000000     0.507434   
Cd10     Cd     0.638900000000     0.936520000000     0.373250000000     0.505686   
Cd11     Cd     0.759970000000     0.073870000000     0.686370000000     0.508108   
Cd12     Cd     0.510230000000     0.945240000000     0.873630000000     0.508533   
Cd13     Cd     0.885270000000     0.448780000000     0.681350000000     0.508019   
Cd14     Cd     0.635490000000     0.570350000000     0.871160000000     0.507985   
Cd15     Cd     0.506930000000     0.564220000000     0.362280000000     0.507353   
Cd16     Cd     0.756440000000     0.433600000000     0.184400000000     0.50573    
H1       H      0.097170000000     0.481050000000     0.254330000000     0.0504079  
H2       H      0.057830000000     0.506370000000     0.277840000000     0.0467026  
H3       H      0.097650000000     0.508070000000     0.365570000000     0.0466694  
H4       H      0.137170000000     0.482690000000     0.341890000000     0.0502337  
H5       H      0.170430000000     0.504920000000     0.303170000000     0.0503039  
H6       H      0.209930000000     0.489070000000     0.274000000000     0.047381   
H7       H      0.164810000000     0.411230000000     0.225700000000     0.0470377  
H8       H      0.125270000000     0.427170000000     0.254940000000     0.0500694  
H9       H      0.386430000000     0.576840000000     0.268240000000     0.0500568  
H10      H      0.424490000000     0.592160000000     0.300340000000     0.0471852  
H11      H      0.450880000000     0.485900000000     0.298150000000     0.0470564  
H12      H      0.412880000000     0.470610000000     0.266510000000     0.0500588  
H13      H      0.394160000000     0.479460000000     0.215110000000     0.0498262  
H14      H      0.354470000000     0.457590000000     0.189620000000     0.0467972  
H15      H      0.305600000000     0.521050000000     0.248460000000     0.0476716  
H16      H      0.345290000000     0.542560000000     0.274200000000     0.0500171  
H17      H      0.169680000000     0.461610000000     0.002140000000     0.0497389  
H18      H      0.149780000000     0.482820000000     0.954870000000     0.0475737  
H19      H      0.178780000000     0.585500000000     0.974730000000     0.0465     
H20      H      0.197920000000     0.564600000000     0.022600000000     0.0497877  
H21      H      0.233570000000     0.529690000000     0.041120000000     0.049942   
H22      H      0.253960000000     0.508070000000     0.088110000000     0.0462859  
H23      H      0.186710000000     0.440790000000     0.102640000000     0.0466628  
H24      H      0.165890000000     0.463180000000     0.056390000000     0.0497609  
H25      H      0.443330000000     0.445600000000     0.527790000000     0.0498703  
H26      H      0.424560000000     0.427710000000     0.576750000000     0.0464996  
H27      H      0.401170000000     0.533110000000     0.595200000000     0.0473578  
H28      H      0.420770000000     0.551310000000     0.546730000000     0.0498824  
H29      H      0.416190000000     0.548810000000     0.492440000000     0.0497141  
H30      H      0.437420000000     0.567670000000     0.445110000000     0.0464931  
H31      H      0.001010000000     0.494740000000     0.460190000000     0.0473676  
H32      H      0.980330000000     0.476690000000     0.508080000000     0.0500275  
H33      H      0.264240000000     0.542910000000     0.724250000000     0.050387   
H34      H      0.302740000000     0.522840000000     0.695020000000     0.0472461  
H35      H      0.334070000000     0.474440000000     0.776660000000     0.0468916  
H36      H      0.295890000000     0.494710000000     0.805740000000     0.0501554  
H37      H      0.248360000000     0.479260000000     0.805770000000     0.0502383  
H38      H      0.208720000000     0.494180000000     0.834690000000     0.046989   
H39      H      0.210510000000     0.597240000000     0.796460000000     0.0470708  
H40      H      0.250570000000     0.582210000000     0.767510000000     0.0503163  
H41      H      0.998220000000     0.541050000000     0.745640000000     0.0501416  
H42      H      0.958680000000     0.525690000000     0.716710000000     0.0470087  
H43      H      0.461000000000     0.422760000000     0.755150000000     0.0471577  
H44      H      0.000970000000     0.438170000000     0.784050000000     0.0501346  
H45      H      0.014400000000     0.477020000000     0.827180000000     0.0503642  
H46      H      0.052790000000     0.496980000000     0.856610000000     0.0472736  
H47      H      0.083810000000     0.546960000000     0.775550000000     0.0468216  
H48      H      0.045740000000     0.526740000000     0.746230000000     0.0500685  
H49      H      0.029380000000     0.757640000000     0.862370000000     0.0503171  
H50      H      0.009130000000     0.814990000000     0.861080000000     0.047443   
H51      H      0.078960000000     0.857930000000     0.904180000000     0.0467921  
H52      H      0.099090000000     0.800570000000     0.905620000000     0.0501959  
H53      H      0.116780000000     0.758340000000     0.867870000000     0.0503086  
H54      H      0.137230000000     0.701130000000     0.865880000000     0.0475011  
H55      H      0.063900000000     0.655420000000     0.897430000000     0.0468641  
H56      H      0.043560000000     0.712630000000     0.899590000000     0.0501446  
H57      H      0.348690000000     0.217950000000     0.652430000000     0.0501045  
H58      H      0.328640000000     0.160600000000     0.654750000000     0.0469066  
H59      H      0.258490000000     0.204310000000     0.696530000000     0.0475398  
H60      H      0.278680000000     0.261660000000     0.694420000000     0.0502457  
H61      H      0.292950000000     0.305940000000     0.656760000000     0.0501353  
H62      H      0.313280000000     0.363190000000     0.657810000000     0.0468397  
H63      H      0.386640000000     0.318270000000     0.690150000000     0.0475146  
H64      H      0.366200000000     0.261030000000     0.689310000000     0.0502119  
H65      H      0.394050000000     0.941580000000     0.771760000000     0.050356   
H66      H      0.933600000000     0.923960000000     0.800340000000     0.0473948  
H67      H      0.443150000000     0.028670000000     0.833100000000     0.0469216  
H68      H      0.403940000000     0.046200000000     0.804440000000     0.0501214  
H69      H      0.355710000000     0.036230000000     0.806960000000     0.0501635  
H70      H      0.316980000000     0.056730000000     0.778980000000     0.0468628  
H71      H      0.342050000000     0.999040000000     0.699220000000     0.0473427  
H72      H      0.381100000000     0.978730000000     0.727290000000     0.0502984  
H73      H      0.141550000000     0.081910000000     0.785340000000     0.0502753  
H74      H      0.181390000000     0.098840000000     0.756800000000     0.0471289  
H75      H      0.193230000000     0.992460000000     0.729780000000     0.0471369  
H76      H      0.153830000000     0.975690000000     0.758300000000     0.0502066  
H77      H      0.105560000000     0.984390000000     0.753520000000     0.0501601  
H78      H      0.067090000000     0.963290000000     0.781520000000     0.0470606  
H79      H      0.089310000000     0.025730000000     0.859580000000     0.0472821  
H80      H      0.128190000000     0.046680000000     0.831440000000     0.0503634  
H81      H      0.083850000000     0.714170000000     0.412330000000     0.0499397  
H82      H      0.061620000000     0.658250000000     0.410790000000     0.0468719  
H83      H      0.024380000000     0.686270000000     0.325080000000     0.0472012  
H84      H      0.046190000000     0.742570000000     0.326950000000     0.0499275  
H85      H      0.090240000000     0.767590000000     0.322140000000     0.0500729  
H86      H      0.111900000000     0.823980000000     0.323380000000     0.0464192  
H87      H      0.096770000000     0.831100000000     0.420690000000     0.0469637  
H88      H      0.074620000000     0.775090000000     0.419340000000     0.050086   
H89      H      0.229450000000     0.967010000000     0.501190000000     0.0497275  
H90      H      0.208840000000     0.944520000000     0.454840000000     0.0465695  
H91      H      0.141010000000     0.010740000000     0.469570000000     0.0463457  
H92      H      0.161150000000     0.032400000000     0.516670000000     0.0499258  
H93      H      0.196240000000     0.067700000000     0.535570000000     0.0497698  
H94      H      0.215220000000     0.088630000000     0.583520000000     0.0464599  
H95      H      0.245630000000     0.986470000000     0.602610000000     0.047473   
H96      H      0.225850000000     0.965170000000     0.555310000000     0.0498495  
H97      H      0.316730000000     0.270040000000     0.137290000000     0.0501678  
H98      H      0.294840000000     0.326230000000     0.136290000000     0.0470155  
H99      H      0.285130000000     0.322060000000     0.234660000000     0.0463846  
H100     H      0.306620000000     0.265530000000     0.235590000000     0.0500499  
H101     H      0.350640000000     0.240510000000     0.227680000000     0.0499724  
H102     H      0.372740000000     0.184370000000     0.229020000000     0.0472659  
H103     H      0.329850000000     0.153370000000     0.147750000000     0.0470039  
H104     H      0.307440000000     0.209200000000     0.146740000000     0.0499435  
H105     H      0.933400000000     0.955320000000     0.064080000000     0.0499219  
H106     H      0.412730000000     0.974450000000     0.111640000000     0.04714    
H107     H      0.437640000000     0.079220000000     0.093030000000     0.0466744  
H108     H      0.457580000000     0.060360000000     0.044920000000     0.0498827  
H109     H      0.427540000000     0.958660000000     0.010010000000     0.0499662  
H110     H      0.446630000000     0.940220000000     0.961490000000     0.046957   
H111     H      0.012470000000     0.010130000000     0.974920000000     0.0471663  
H112     H      0.993800000000     0.027850000000     0.024130000000     0.0499172  
H113     H      0.225360000000     0.005940000000     0.254150000000     0.0502515  
H114     H      0.185950000000     0.991210000000     0.283910000000     0.047465   
H115     H      0.230440000000     0.912610000000     0.332020000000     0.0469877  
H116     H      0.269910000000     0.927440000000     0.302180000000     0.050107   
H117     H      0.298750000000     0.980670000000     0.302090000000     0.0504118  
H118     H      0.338120000000     0.005100000000     0.277930000000     0.0467989  
H119     H      0.297420000000     0.007110000000     0.190740000000     0.0465838  
H120     H      0.257870000000     0.982620000000     0.215070000000     0.0502733  
H121     H      0.982000000000     0.975070000000     0.294330000000     0.0501238  
H122     H      0.943940000000     0.988800000000     0.262330000000     0.0473755  
H123     H      0.473500000000     0.092770000000     0.250140000000     0.0469295  
H124     H      0.011670000000     0.079040000000     0.282670000000     0.0499394  
H125     H      0.051550000000     0.042070000000     0.278790000000     0.0499965  
H126     H      0.091090000000     0.020670000000     0.304850000000     0.0476787  
H127     H      0.041650000000     0.966360000000     0.369930000000     0.0468182  
H128     H      0.002110000000     0.988220000000     0.344110000000     0.0498474  
H129     H      0.597170000000     0.481050000000     0.254330000000     0.0504097  
H130     H      0.557820000000     0.506370000000     0.277840000000     0.0467032  
H131     H      0.597650000000     0.508070000000     0.365570000000     0.0466707  
H132     H      0.637170000000     0.482690000000     0.341890000000     0.0502356  
H133     H      0.670430000000     0.504920000000     0.303170000000     0.0503049  
H134     H      0.709930000000     0.489070000000     0.274000000000     0.0473815  
H135     H      0.664810000000     0.411230000000     0.225700000000     0.0470397  
H136     H      0.625270000000     0.427170000000     0.254940000000     0.0500726  
H137     H      0.886430000000     0.576840000000     0.268240000000     0.0500627  
H138     H      0.924490000000     0.592160000000     0.300340000000     0.0471993  
H139     H      0.950880000000     0.485900000000     0.298150000000     0.0470598  
H140     H      0.912880000000     0.470620000000     0.266510000000     0.0501051  
H141     H      0.894160000000     0.479470000000     0.215110000000     0.0498821  
H142     H      0.854470000000     0.457590000000     0.189620000000     0.0468087  
H143     H      0.805600000000     0.521050000000     0.248460000000     0.0476731  
H144     H      0.845290000000     0.542560000000     0.274200000000     0.0500179  
H145     H      0.669680000000     0.461610000000     0.002140000000     0.0497409  
H146     H      0.649780000000     0.482820000000     0.954870000000     0.047576   
H147     H      0.678780000000     0.585500000000     0.974730000000     0.0465009  
H148     H      0.697920000000     0.564600000000     0.022600000000     0.0497889  
H149     H      0.733570000000     0.529690000000     0.041120000000     0.0499432  
H150     H      0.753960000000     0.508070000000     0.088110000000     0.0462875  
H151     H      0.686710000000     0.440790000000     0.102640000000     0.0466648  
H152     H      0.665890000000     0.463180000000     0.056390000000     0.0497636  
H153     H      0.943330000000     0.445600000000     0.527790000000     0.049902   
H154     H      0.924560000000     0.427710000000     0.576750000000     0.0464936  
H155     H      0.901170000000     0.533110000000     0.595200000000     0.0473412  
H156     H      0.920770000000     0.551310000000     0.546730000000     0.0498969  
H157     H      0.916180000000     0.548810000000     0.492440000000     0.0496895  
H158     H      0.937420000000     0.567670000000     0.445100000000     0.0464945  
H159     H      0.501010000000     0.494740000000     0.460190000000     0.0474526  
H160     H      0.480330000000     0.476690000000     0.508080000000     0.0499977  
H161     H      0.764240000000     0.542910000000     0.724250000000     0.0503915  
H162     H      0.802740000000     0.522840000000     0.695020000000     0.0472433  
H163     H      0.834070000000     0.474440000000     0.776660000000     0.0468783  
H164     H      0.795890000000     0.494710000000     0.805740000000     0.0501639  
H165     H      0.748360000000     0.479260000000     0.805770000000     0.0502382  
H166     H      0.708720000000     0.494180000000     0.834690000000     0.0469912  
H167     H      0.710510000000     0.597240000000     0.796460000000     0.0470771  
H168     H      0.750570000000     0.582210000000     0.767510000000     0.0503168  
H169     H      0.498220000000     0.541050000000     0.745640000000     0.0501586  
H170     H      0.458680000000     0.525690000000     0.716710000000     0.0469806  
H171     H      0.961000000000     0.422760000000     0.755150000000     0.0471968  
H172     H      0.500970000000     0.438170000000     0.784050000000     0.0502364  
H173     H      0.514400000000     0.477020000000     0.827180000000     0.0503604  
H174     H      0.552790000000     0.496980000000     0.856610000000     0.0472949  
H175     H      0.583810000000     0.546960000000     0.775550000000     0.0468446  
H176     H      0.545740000000     0.526740000000     0.746230000000     0.0500708  
H177     H      0.529380000000     0.757640000000     0.862370000000     0.0503309  
H178     H      0.509120000000     0.814990000000     0.861080000000     0.0474406  
H179     H      0.578960000000     0.857930000000     0.904180000000     0.0467943  
H180     H      0.599090000000     0.800570000000     0.905620000000     0.0501871  
H181     H      0.616780000000     0.758340000000     0.867870000000     0.0502954  
H182     H      0.637230000000     0.701130000000     0.865880000000     0.0475301  
H183     H      0.563900000000     0.655420000000     0.897430000000     0.0468762  
H184     H      0.543560000000     0.712630000000     0.899590000000     0.0501455  
H185     H      0.848690000000     0.217950000000     0.652430000000     0.0501058  
H186     H      0.828640000000     0.160600000000     0.654750000000     0.0469119  
H187     H      0.758490000000     0.204310000000     0.696530000000     0.0475522  
H188     H      0.778680000000     0.261660000000     0.694420000000     0.0502412  
H189     H      0.792950000000     0.305940000000     0.656760000000     0.0501373  
H190     H      0.813280000000     0.363190000000     0.657810000000     0.0468404  
H191     H      0.886640000000     0.318270000000     0.690150000000     0.0475189  
H192     H      0.866200000000     0.261030000000     0.689310000000     0.0502157  
H193     H      0.894050000000     0.941570000000     0.771760000000     0.0503404  
H194     H      0.433600000000     0.923960000000     0.800340000000     0.0473819  
H195     H      0.943150000000     0.028670000000     0.833100000000     0.0469234  
H196     H      0.903940000000     0.046200000000     0.804440000000     0.0501276  
H197     H      0.855710000000     0.036230000000     0.806960000000     0.0501317  
H198     H      0.816980000000     0.056730000000     0.778980000000     0.0468662  
H199     H      0.842050000000     0.999040000000     0.699220000000     0.0473448  
H200     H      0.881100000000     0.978730000000     0.727290000000     0.0503214  
H201     H      0.641550000000     0.081910000000     0.785340000000     0.0502769  
H202     H      0.681390000000     0.098840000000     0.756800000000     0.0471312  
H203     H      0.693230000000     0.992460000000     0.729780000000     0.0471382  
H204     H      0.653830000000     0.975690000000     0.758300000000     0.0502061  
H205     H      0.605560000000     0.984390000000     0.753520000000     0.0501676  
H206     H      0.567090000000     0.963290000000     0.781520000000     0.0470635  
H207     H      0.589310000000     0.025730000000     0.859580000000     0.0472901  
H208     H      0.628190000000     0.046680000000     0.831440000000     0.050369   
H209     H      0.583850000000     0.714170000000     0.412330000000     0.0499411  
H210     H      0.561620000000     0.658250000000     0.410790000000     0.0468775  
H211     H      0.524380000000     0.686270000000     0.325080000000     0.0472117  
H212     H      0.546190000000     0.742570000000     0.326950000000     0.0499343  
H213     H      0.590240000000     0.767590000000     0.322140000000     0.050079   
H214     H      0.611900000000     0.823980000000     0.323380000000     0.0464232  
H215     H      0.596770000000     0.831100000000     0.420690000000     0.0469663  
H216     H      0.574620000000     0.775090000000     0.419340000000     0.0500921  
H217     H      0.729450000000     0.967020000000     0.501190000000     0.0497416  
H218     H      0.708840000000     0.944520000000     0.454840000000     0.0465678  
H219     H      0.641010000000     0.010740000000     0.469570000000     0.0463478  
H220     H      0.661150000000     0.032400000000     0.516670000000     0.0499301  
H221     H      0.696240000000     0.067700000000     0.535570000000     0.0497698  
H222     H      0.715220000000     0.088630000000     0.583520000000     0.0464643  
H223     H      0.745620000000     0.986470000000     0.602610000000     0.0474804  
H224     H      0.725850000000     0.965170000000     0.555310000000     0.0498477  
H225     H      0.816730000000     0.270040000000     0.137290000000     0.0501705  
H226     H      0.794840000000     0.326230000000     0.136290000000     0.0470162  
H227     H      0.785120000000     0.322060000000     0.234660000000     0.0463841  
H228     H      0.806620000000     0.265530000000     0.235590000000     0.0500528  
H229     H      0.850640000000     0.240510000000     0.227680000000     0.0499752  
H230     H      0.872740000000     0.184370000000     0.229020000000     0.0472695  
H231     H      0.829850000000     0.153370000000     0.147750000000     0.0470049  
H232     H      0.807440000000     0.209200000000     0.146740000000     0.0499442  
H233     H      0.433400000000     0.955320000000     0.064090000000     0.0499181  
H234     H      0.912720000000     0.974450000000     0.111640000000     0.0471392  
H235     H      0.937640000000     0.079220000000     0.093030000000     0.0466713  
H236     H      0.957570000000     0.060360000000     0.044920000000     0.0499151  
H237     H      0.927530000000     0.958670000000     0.010010000000     0.0499291  
H238     H      0.946630000000     0.940220000000     0.961480000000     0.0469637  
H239     H      0.512470000000     0.010130000000     0.974920000000     0.047231   
H240     H      0.493800000000     0.027850000000     0.024130000000     0.0499192  
H241     H      0.725360000000     0.005940000000     0.254150000000     0.0502616  
H242     H      0.685950000000     0.991210000000     0.283910000000     0.047447   
H243     H      0.730440000000     0.912610000000     0.332020000000     0.0469927  
H244     H      0.769920000000     0.927440000000     0.302180000000     0.050077   
H245     H      0.798750000000     0.980670000000     0.302090000000     0.0504133  
H246     H      0.838120000000     0.005100000000     0.277930000000     0.0467959  
H247     H      0.797420000000     0.007110000000     0.190740000000     0.0465842  
H248     H      0.757870000000     0.982620000000     0.215070000000     0.0502731  
H249     H      0.482000000000     0.975070000000     0.294330000000     0.0500921  
H250     H      0.443940000000     0.988810000000     0.262330000000     0.0473859  
H251     H      0.973500000000     0.092770000000     0.250140000000     0.0469446  
H252     H      0.511670000000     0.079040000000     0.282670000000     0.049967   
H253     H      0.551550000000     0.042070000000     0.278790000000     0.0500166  
H254     H      0.591090000000     0.020670000000     0.304850000000     0.0476775  
H255     H      0.541650000000     0.966360000000     0.369930000000     0.0468212  
H256     H      0.502110000000     0.988220000000     0.344110000000     0.0498773  
O1       O      0.382340000000     0.122000000000     0.210390000000    -0.233215   
O2       O      0.346530000000     0.029110000000     0.189890000000    -0.232764   
O3       O      0.428870000000     0.079120000000     0.222100000000    -0.231349   
O4       O      0.414420000000     0.070180000000     0.145340000000    -0.238851   
O5       O      0.397500000000     0.019700000000     0.151560000000    -0.235279   
O6       O      0.416990000000     0.025800000000     0.225350000000    -0.23566    
O7       O      0.360550000000     0.106780000000     0.170240000000    -0.237711   
O8       O      0.362180000000     0.038310000000     0.235030000000    -0.236517   
O9       O      0.162720000000     0.965410000000     0.331480000000    -0.228643   
O10      O      0.140580000000     0.975760000000     0.418380000000    -0.238441   
O11      O      0.126720000000     0.881260000000     0.348590000000    -0.23905    
O12      O      0.091720000000     0.953320000000     0.374230000000    -0.235479   
O13      O      0.116100000000     0.979320000000     0.340980000000    -0.227626   
O14      O      0.120010000000     0.884210000000     0.397140000000    -0.237179   
O15      O      0.181410000000     0.919640000000     0.349340000000    -0.232394   
O16      O      0.170980000000     0.937100000000     0.415810000000    -0.238035   
O17      O      0.221450000000     0.087920000000     0.719750000000    -0.230835   
O18      O      0.299870000000     0.036950000000     0.691490000000    -0.231017   
O19      O      0.258690000000     0.137380000000     0.692320000000    -0.230758   
O20      O      0.236500000000     0.080930000000     0.637190000000    -0.239627   
O21      O      0.257190000000     0.032810000000     0.643200000000    -0.232183   
O22      O      0.292230000000     0.116580000000     0.667950000000    -0.238763   
O23      O      0.228010000000     0.034240000000     0.709480000000    -0.239821   
O24      O      0.287000000000     0.063640000000     0.732120000000    -0.240046   
O25      O      0.972610000000     0.933280000000     0.838700000000    -0.230235   
O26      O      0.048050000000     0.985860000000     0.867900000000    -0.230632   
O27      O      0.009330000000     0.881850000000     0.866240000000    -0.231461   
O28      O      0.981160000000     0.939830000000     0.918390000000    -0.240083   
O29      O      0.011550000000     0.978650000000     0.922080000000    -0.231597   
O30      O      0.042380000000     0.902080000000     0.891730000000    -0.239928   
O31      O      0.978390000000     0.986310000000     0.852070000000    -0.239756   
O32      O      0.037630000000     0.955460000000     0.828380000000    -0.240284   
O33      O      0.422810000000     0.433970000000     0.715800000000    -0.23056    
O34      O      0.345720000000     0.486390000000     0.686910000000    -0.23135    
O35      O      0.386420000000     0.385230000000     0.686890000000    -0.230579   
O36      O      0.406130000000     0.438730000000     0.631170000000    -0.239905   
O37      O      0.388470000000     0.488830000000     0.637370000000    -0.232221   
O38      O      0.351030000000     0.406700000000     0.666890000000    -0.238675   
O39      O      0.420430000000     0.486670000000     0.700380000000    -0.23944    
O40      O      0.360810000000     0.462960000000     0.728090000000    -0.24031    
O41      O      0.136810000000     0.634060000000     0.867280000000    -0.23093    
O42      O      0.138320000000     0.528980000000     0.914120000000    -0.232088   
O43      O      0.172720000000     0.585730000000     0.836430000000    -0.230517   
O44      O      0.110730000000     0.557530000000     0.824250000000    -0.240289   
O45      O      0.095790000000     0.533150000000     0.865060000000    -0.231261   
O46      O      0.170310000000     0.532750000000     0.851090000000    -0.2396     
O47      O      0.101610000000     0.612130000000     0.887320000000    -0.238911   
O48      O      0.157760000000     0.577850000000     0.921000000000    -0.239516   
O49      O      0.968110000000     0.579640000000     0.330400000000    -0.230567   
O50      O      0.003050000000     0.527680000000     0.408500000000    -0.233301   
O51      O      0.014410000000     0.624040000000     0.343900000000    -0.234067   
O52      O      0.033580000000     0.540080000000     0.320410000000    -0.236876   
O53      O      0.048840000000     0.530950000000     0.365710000000    -0.232179   
O54      O      0.032430000000     0.610860000000     0.386930000000    -0.239446   
O55      O      0.978460000000     0.525660000000     0.332480000000    -0.236491   
O56      O      0.974950000000     0.569270000000     0.404750000000    -0.239113   
O57      O      0.233200000000     0.462550000000     0.226700000000    -0.229219   
O58      O      0.224350000000     0.434140000000     0.141910000000    -0.237909   
O59      O      0.268720000000     0.378490000000     0.209230000000    -0.238682   
O60      O      0.304120000000     0.447680000000     0.184050000000    -0.23579    
O61      O      0.279900000000     0.477830000000     0.214600000000    -0.227612   
O62      O      0.274060000000     0.380690000000     0.160390000000    -0.236656   
O63      O      0.213860000000     0.417430000000     0.208510000000    -0.23281    
O64      O      0.254880000000     0.472600000000     0.139040000000    -0.23866    
O65      O      0.882340000000     0.122000000000     0.210390000000    -0.233212   
O66      O      0.846530000000     0.029110000000     0.189890000000    -0.232764   
O67      O      0.928870000000     0.079120000000     0.222100000000    -0.231345   
O68      O      0.914420000000     0.070180000000     0.145340000000    -0.238848   
O69      O      0.897500000000     0.019700000000     0.151560000000    -0.23528    
O70      O      0.916990000000     0.025800000000     0.225350000000    -0.235657   
O71      O      0.860550000000     0.106780000000     0.170240000000    -0.23771    
O72      O      0.862180000000     0.038310000000     0.235030000000    -0.236516   
O73      O      0.662720000000     0.965410000000     0.331480000000    -0.228645   
O74      O      0.640580000000     0.975760000000     0.418380000000    -0.238439   
O75      O      0.626720000000     0.881260000000     0.348590000000    -0.239047   
O76      O      0.591720000000     0.953320000000     0.374230000000    -0.235476   
O77      O      0.616100000000     0.979320000000     0.340980000000    -0.227625   
O78      O      0.620010000000     0.884210000000     0.397140000000    -0.237176   
O79      O      0.681410000000     0.919640000000     0.349340000000    -0.232396   
O80      O      0.670980000000     0.937100000000     0.415810000000    -0.238035   
O81      O      0.721450000000     0.087920000000     0.719750000000    -0.230833   
O82      O      0.799870000000     0.036950000000     0.691490000000    -0.231016   
O83      O      0.758690000000     0.137380000000     0.692320000000    -0.230797   
O84      O      0.736500000000     0.080930000000     0.637190000000    -0.239621   
O85      O      0.757190000000     0.032810000000     0.643200000000    -0.232179   
O86      O      0.792230000000     0.116580000000     0.667950000000    -0.238735   
O87      O      0.728010000000     0.034240000000     0.709480000000    -0.23982    
O88      O      0.787000000000     0.063640000000     0.732120000000    -0.240048   
O89      O      0.472610000000     0.933280000000     0.838710000000    -0.230246   
O90      O      0.548050000000     0.985860000000     0.867900000000    -0.230586   
O91      O      0.509330000000     0.881850000000     0.866240000000    -0.231443   
O92      O      0.481160000000     0.939830000000     0.918400000000    -0.240143   
O93      O      0.511550000000     0.978650000000     0.922080000000    -0.231559   
O94      O      0.542380000000     0.902080000000     0.891730000000    -0.239926   
O95      O      0.478390000000     0.986310000000     0.852080000000    -0.239724   
O96      O      0.537620000000     0.955460000000     0.828380000000    -0.240193   
O97      O      0.922810000000     0.433970000000     0.715800000000    -0.230548   
O98      O      0.845720000000     0.486390000000     0.686910000000    -0.231352   
O99      O      0.886420000000     0.385230000000     0.686890000000    -0.230575   
O100     O      0.906130000000     0.438730000000     0.631170000000    -0.239905   
O101     O      0.888470000000     0.488830000000     0.637370000000    -0.232224   
O102     O      0.851030000000     0.406700000000     0.666890000000    -0.238674   
O103     O      0.920430000000     0.486670000000     0.700380000000    -0.239429   
O104     O      0.860810000000     0.462960000000     0.728090000000    -0.240312   
O105     O      0.636810000000     0.634060000000     0.867280000000    -0.230926   
O106     O      0.638320000000     0.528980000000     0.914120000000    -0.232087   
O107     O      0.672720000000     0.585730000000     0.836420000000    -0.230513   
O108     O      0.610740000000     0.557530000000     0.824250000000    -0.24018    
O109     O      0.595790000000     0.533150000000     0.865060000000    -0.231209   
O110     O      0.670310000000     0.532750000000     0.851090000000    -0.239602   
O111     O      0.601610000000     0.612130000000     0.887320000000    -0.238905   
O112     O      0.657760000000     0.577850000000     0.921000000000    -0.239519   
O113     O      0.468120000000     0.579640000000     0.330400000000    -0.230584   
O114     O      0.503050000000     0.527680000000     0.408500000000    -0.233228   
O115     O      0.514410000000     0.624040000000     0.343900000000    -0.234044   
O116     O      0.533580000000     0.540080000000     0.320410000000    -0.236862   
O117     O      0.548840000000     0.530950000000     0.365710000000    -0.232176   
O118     O      0.532430000000     0.610860000000     0.386930000000    -0.239436   
O119     O      0.478460000000     0.525660000000     0.332480000000    -0.236517   
O120     O      0.474950000000     0.569270000000     0.404750000000    -0.239115   
O121     O      0.733200000000     0.462550000000     0.226700000000    -0.229219   
O122     O      0.724350000000     0.434140000000     0.141910000000    -0.237908   
O123     O      0.768720000000     0.378490000000     0.209230000000    -0.238683   
O124     O      0.804120000000     0.447680000000     0.184050000000    -0.235787   
O125     O      0.779900000000     0.477830000000     0.214600000000    -0.227611   
O126     O      0.774060000000     0.380690000000     0.160390000000    -0.236655   
O127     O      0.713860000000     0.417430000000     0.208510000000    -0.232809   
O128     O      0.754880000000     0.472600000000     0.139040000000    -0.238659   


