data_structure

_audit_creation_method RASPA-1.0
_audit_creation_date 2023-5-22
_audit_author_name 'Poobodin Mano'

_cell_length_a    44.5705
_cell_length_b    44.0993
_cell_length_c    45.9324
_cell_angle_alpha 89.9996
_cell_angle_beta  89.9994
_cell_angle_gamma 119.963
_cell_volume      78215.1

_symmetry_cell_setting          triclinic
_symmetry_space_group_name_Hall 'P 1'
_symmetry_space_group_name_H-M  'P 1'
_symmetry_Int_Tables_number     1

_symmetry_equiv_pos_as_xyz 'x,y,z'

loop_
_atom_site_label
_atom_site_type_symbol
_atom_site_fract_x
_atom_site_fract_y
_atom_site_fract_z
_atom_site_charge
C1       C      0.403400000000     0.511110000000     0.181010000000     0.287588   
C2       C      0.394710000000     0.588310000000     0.261170000000     0.286971   
C3       C      0.312340000000     0.521520000000     0.197390000000     0.288128   
C4       C      0.368740000000     0.476360000000     0.271540000000     0.288016   
C5       C      0.127340000000     0.548380000000     0.095060000000     0.28666    
C6       C      0.036870000000     0.533880000000     0.516380000000     0.287199   
C7       C      0.038580000000     0.568780000000     0.104380000000     0.287491   
C8       C      0.138410000000     0.626760000000     0.028030000000     0.287448   
C9       C      0.434660000000     0.804020000000     0.366810000000     0.291811   
C10      C      0.465340000000     0.883550000000     0.455250000000     0.288681   
C11      C      0.433110000000     0.907710000000     0.367340000000     0.28537    
C12      C      0.356280000000     0.804690000000     0.427570000000     0.287972   
C13      C      0.872010000000     0.489010000000     0.266540000000     0.289017   
C14      C      0.764720000000     0.441620000000     0.325540000000     0.289723   
C15      C      0.791330000000     0.371740000000     0.270900000000     0.289068   
C16      C      0.860420000000     0.438550000000     0.356550000000     0.288814   
C17      C      0.446200000000     0.386860000000     0.433840000000     0.288298   
C18      C      0.493950000000     0.325770000000     0.494180000000     0.289179   
C19      C      0.560330000000     0.418440000000     0.434840000000     0.28841    
C20      C      0.496330000000     0.424770000000     0.022520000000     0.288532   
C21      C      0.511080000000     0.143940000000     0.112230000000     0.290647   
C22      C      0.499880000000     0.077760000000     0.204780000000     0.288143   
C23      C      0.531920000000     0.052150000000     0.117180000000     0.287658   
C24      C      0.601630000000     0.165050000000     0.169420000000     0.288233   
C25      C      0.477800000000     0.202710000000     0.084340000000    -0.0562424  
C26      C      0.492570000000     0.211100000000     0.056360000000     0.0217411  
C27      C      0.510610000000     0.194700000000     0.046120000000    -0.0568453  
C28      C      0.515280000000     0.171750000000     0.063920000000     0.0129338  
C29      C      0.502110000000     0.164720000000     0.092450000000    -0.0733009  
C30      C      0.482600000000     0.179770000000     0.102260000000     0.0129654  
C31      C      0.491770000000     0.238970000000     0.038820000000     0.0216867  
C32      C      0.461310000000     0.240840000000     0.036070000000    -0.0565367  
C33      C      0.461570000000     0.268400000000     0.020670000000     0.0128599  
C34      C      0.492410000000     0.294800000000     0.008140000000    -0.0728327  
C35      C      0.522630000000     0.292530000000     0.510520000000     0.0129915  
C36      C      0.522290000000     0.264910000000     0.025580000000    -0.0564489  
C37      C      0.674130000000     0.413350000000     0.351550000000    -0.0566565  
C38      C      0.678640000000     0.443360000000     0.366140000000     0.0218855  
C39      C      0.711550000000     0.473640000000     0.366050000000    -0.0566808  
C40      C      0.739470000000     0.473640000000     0.351970000000     0.0130329  
C41      C      0.735000000000     0.443230000000     0.338110000000    -0.0732956  
C42      C      0.701960000000     0.413260000000     0.337800000000     0.0132042  
C43      C      0.649210000000     0.441970000000     0.382470000000     0.0215647  
C44      C      0.615820000000     0.425000000000     0.370340000000    -0.0566875  
C45      C      0.587190000000     0.418930000000     0.387040000000     0.0125493  
C46      C      0.591260000000     0.429690000000     0.416270000000    -0.0726913  
C47      C      0.624840000000     0.448500000000     0.427950000000     0.0125411  
C48      C      0.653590000000     0.454610000000     0.411180000000    -0.0559792  
C49      C      0.729780000000     0.276970000000     0.251300000000    -0.0560766  
C50      C      0.723150000000     0.279970000000     0.221810000000     0.0216614  
C51      C      0.742420000000     0.312530000000     0.207930000000    -0.0567331  
C52      C      0.766080000000     0.341950000000     0.223620000000     0.0127358  
C53      C      0.771020000000     0.339500000000     0.253560000000    -0.0728783  
C54      C      0.753500000000     0.306500000000     0.267050000000     0.0127962  
C55      C      0.693820000000     0.250410000000     0.206410000000     0.0217401  
C56      C      0.687420000000     0.215900000000     0.209100000000    -0.056478   
C57      C      0.658090000000     0.188080000000     0.196170000000     0.0127024  
C58      C      0.634440000000     0.194280000000     0.180710000000    -0.0722859  
C59      C      0.641310000000     0.228830000000     0.177550000000     0.0128846  
C60      C      0.670670000000     0.256550000000     0.190150000000    -0.0564653  
C61      C      0.480230000000     0.987140000000     0.319090000000    -0.0557537  
C62      C      0.452930000000     0.988830000000     0.305330000000     0.0214298  
C63      C      0.418660000000     0.964490000000     0.313340000000    -0.0558309  
C64      C      0.411960000000     0.938600000000     0.334180000000     0.0116349  
C65      C      0.439410000000     0.936510000000     0.347220000000    -0.0715871  
C66      C      0.473570000000     0.961410000000     0.339740000000     0.0119698  
C67      C      0.460730000000     0.014380000000     0.281310000000     0.0219479  
C68      C      0.490160000000     0.047970000000     0.282850000000    -0.0566083  
C69      C      0.501690000000     0.069510000000     0.258320000000     0.0132156  
C70      C      0.483770000000     0.058190000000     0.231820000000    -0.0731729  
C71      C      0.452690000000     0.025960000000     0.230870000000     0.0127949  
C72      C      0.441330000000     0.004160000000     0.255380000000    -0.0558763  
C73      C      0.549910000000     0.001740000000     0.059430000000    -0.0560266  
C74      C      0.516750000000     0.972340000000     0.055510000000     0.0217481  
C75      C      0.489740000000     0.968250000000     0.073890000000    -0.055805   
C76      C      0.495270000000     0.993460000000     0.094750000000     0.0125399  
C77      C      0.527910000000     0.023630000000     0.097730000000    -0.0726757  
C78      C      0.555430000000     0.027170000000     0.080340000000     0.0123854  
C79      C      0.509050000000     0.947680000000     0.530760000000     0.0220175  
C80      C      0.523480000000     0.960300000000     0.503080000000    -0.0558815  
C81      C      0.511100000000     0.938540000000     0.478630000000     0.0129078  
C82      C      0.483790000000     0.903910000000     0.481350000000    -0.0737431  
C83      C      0.471230000000     0.890520000000     0.509220000000     0.0134979  
C84      C      0.483960000000     0.912070000000     0.533690000000    -0.0565381  
C85      C      0.974820000000     0.466080000000     0.462490000000    -0.0564441  
C86      C      0.958000000000     0.483230000000     0.451030000000     0.021452   
C87      C      0.967970000000     0.517170000000     0.460760000000    -0.0562707  
C88      C      0.993740000000     0.533460000000     0.481710000000     0.0113947  
C89      C      0.010270000000     0.516270000000     0.493570000000    -0.0715641  
C90      C      0.000670000000     0.482420000000     0.483710000000     0.0123689  
C91      C      0.930420000000     0.466580000000     0.428680000000     0.0217906  
C92      C      0.934620000000     0.449770000000     0.404300000000    -0.0562352  
C93      C      0.910790000000     0.438780000000     0.381310000000     0.012916   
C94      C      0.882470000000     0.444490000000     0.382380000000    -0.0729477  
C95      C      0.877180000000     0.459250000000     0.407580000000     0.0130131  
C96      C      0.900810000000     0.470070000000     0.430480000000    -0.0568432  
C97      C      0.955900000000     0.541680000000     0.225500000000    -0.0564181  
C98      C      0.943830000000     0.545080000000     0.198140000000     0.0220028  
C99      C      0.908540000000     0.534280000000     0.194780000000    -0.0569461  
C100     C      0.885380000000     0.518250000000     0.217810000000     0.0131803  
C101     C      0.897050000000     0.512300000000     0.244450000000    -0.0732792  
C102     C      0.932690000000     0.525250000000     0.248400000000     0.0133194  
C103     C      0.966940000000     0.554910000000     0.172440000000     0.0213054  
C104     C      0.000900000000     0.583590000000     0.173250000000    -0.0560433  
C105     C      0.023940000000     0.589450000000     0.150330000000     0.0126595  
C106     C      0.013540000000     0.566220000000     0.126640000000    -0.0725468  
C107     C      0.979260000000     0.538390000000     0.125400000000     0.0130945  
C108     C      0.956140000000     0.532960000000     0.147920000000    -0.0561522  
C109     C      0.282670000000     0.721920000000     0.459360000000    -0.0565157  
C110     C      0.258410000000     0.732160000000     0.466680000000     0.0215905  
C111     C      0.266500000000     0.766780000000     0.460930000000    -0.0561467  
C112     C      0.298150000000     0.790500000000     0.447890000000     0.0121559  
C113     C      0.322290000000     0.780040000000     0.440620000000    -0.0717098  
C114     C      0.314130000000     0.745500000000     0.446510000000     0.0124743  
C115     C      0.225160000000     0.706470000000     0.480570000000     0.0215219  
C116     C      0.207530000000     0.671650000000     0.470750000000    -0.056565   
C117     C      0.178720000000     0.646190000000     0.485710000000     0.0125245  
C118     C      0.166590000000     0.654900000000     0.510780000000    -0.0725924  
C119     C      0.182980000000     0.690050000000     0.019800000000     0.0120243  
C120     C      0.212080000000     0.715640000000     0.504820000000    -0.0558862  
C121     C      0.462510000000     0.434660000000     0.094940000000    -0.0568336  
C122     C      0.468360000000     0.469000000000     0.093340000000     0.0218229  
C123     C      0.487420000000     0.490280000000     0.069780000000    -0.0562952  
C124     C      0.498360000000     0.476590000000     0.047270000000     0.0129793  
C125     C      0.490390000000     0.441470000000     0.048060000000    -0.0729139  
C126     C      0.473330000000     0.421030000000     0.072560000000     0.0130541  
C127     C      0.452030000000     0.481130000000     0.115050000000     0.0216249  
C128     C      0.417350000000     0.458820000000     0.123030000000    -0.0566346  
C129     C      0.401610000000     0.469050000000     0.143970000000     0.0125071  
C130     C      0.420120000000     0.501870000000     0.157550000000    -0.0722635  
C131     C      0.454620000000     0.524660000000     0.149170000000     0.0124116  
C132     C      0.470420000000     0.514420000000     0.127960000000    -0.0562081  
C133     C      0.398800000000     0.377540000000     0.363320000000    -0.0567458  
C134     C      0.390380000000     0.404160000000     0.366210000000     0.0218075  
C135     C      0.396080000000     0.421460000000     0.393040000000    -0.0561958  
C136     C      0.412400000000     0.414240000000     0.415760000000     0.013225   
C137     C      0.422980000000     0.389320000000     0.412190000000    -0.0730857  
C138     C      0.414750000000     0.370000000000     0.386200000000     0.0129551  
C139     C      0.380600000000     0.417500000000     0.340390000000     0.0220107  
C140     C      0.400620000000     0.425510000000     0.314950000000    -0.0565209  
C141     C      0.395730000000     0.443490000000     0.292180000000     0.0137711  
C142     C      0.370380000000     0.453440000000     0.294130000000    -0.0736428  
C143     C      0.348910000000     0.443660000000     0.318800000000     0.0131689  
C144     C      0.354220000000     0.426130000000     0.341910000000    -0.0568264  
C145     C      0.387900000000     0.656650000000     0.305480000000    -0.0570375  
C146     C      0.421980000000     0.684830000000     0.304940000000     0.021395   
C147     C      0.447800000000     0.680810000000     0.290950000000    -0.0565825  
C148     C      0.439260000000     0.649300000000     0.276800000000     0.0123922  
C149     C      0.404930000000     0.621260000000     0.277010000000    -0.0728165  
C150     C      0.379520000000     0.625170000000     0.291870000000     0.0125096  
C151     C      0.429540000000     0.718420000000     0.318270000000     0.0218018  
C152     C      0.410070000000     0.733950000000     0.309810000000    -0.057526   
C153     C      0.413250000000     0.762920000000     0.324730000000     0.0133531  
C154     C      0.435680000000     0.776780000000     0.348710000000    -0.0741676  
C155     C      0.456450000000     0.762290000000     0.356340000000     0.0133086  
C156     C      0.453540000000     0.733380000000     0.341080000000    -0.0569185  
C157     C      0.197960000000     0.559020000000     0.146560000000    -0.0567171  
C158     C      0.200670000000     0.529300000000     0.140500000000     0.0214204  
C159     C      0.177370000000     0.504320000000     0.120700000000    -0.0560296  
C160     C      0.152780000000     0.509870000000     0.106250000000     0.0120305  
C161     C      0.150960000000     0.540310000000     0.111670000000    -0.0725358  
C162     C      0.173370000000     0.564410000000     0.132410000000     0.012131   
C163     C      0.229120000000     0.525860000000     0.153820000000     0.0216471  
C164     C      0.262970000000     0.554530000000     0.153330000000    -0.0568505  
C165     C      0.289880000000     0.552670000000     0.167030000000     0.0124748  
C166     C      0.283610000000     0.522140000000     0.181780000000    -0.072711   
C167     C      0.249850000000     0.493090000000     0.181850000000     0.0124569  
C168     C      0.222820000000     0.494860000000     0.167780000000    -0.05642    
C169     C      0.403410000000     0.511110000000     0.681010000000     0.287493   
C170     C      0.394720000000     0.588310000000     0.761160000000     0.287046   
C171     C      0.312350000000     0.521520000000     0.697370000000     0.288142   
C172     C      0.368740000000     0.476360000000     0.771530000000     0.288275   
C173     C      0.127340000000     0.548380000000     0.595060000000     0.286648   
C174     C      0.036880000000     0.533880000000     0.016380000000     0.287462   
C175     C      0.038570000000     0.568780000000     0.604390000000     0.287215   
C176     C      0.138410000000     0.626760000000     0.528030000000     0.287527   
C177     C      0.434670000000     0.804020000000     0.866810000000     0.29165    
C178     C      0.465350000000     0.883550000000     0.955250000000     0.28863    
C179     C      0.433120000000     0.907710000000     0.867340000000     0.285219   
C180     C      0.356290000000     0.804690000000     0.927570000000     0.287818   
C181     C      0.872010000000     0.489000000000     0.766540000000     0.28912    
C182     C      0.764710000000     0.441620000000     0.825550000000     0.289708   
C183     C      0.791320000000     0.371740000000     0.770900000000     0.289098   
C184     C      0.860420000000     0.438550000000     0.856560000000     0.288588   
C185     C      0.446200000000     0.386860000000     0.933840000000     0.288228   
C186     C      0.493950000000     0.325780000000     0.994190000000     0.289101   
C187     C      0.560330000000     0.418430000000     0.934840000000     0.288195   
C188     C      0.496360000000     0.424780000000     0.522520000000     0.288756   
C189     C      0.511070000000     0.143940000000     0.612230000000     0.29035    
C190     C      0.499870000000     0.077760000000     0.704790000000     0.287979   
C191     C      0.531910000000     0.052150000000     0.617190000000     0.287707   
C192     C      0.601620000000     0.165050000000     0.669420000000     0.288351   
C193     C      0.477800000000     0.202720000000     0.584350000000    -0.0562376  
C194     C      0.492560000000     0.211100000000     0.556360000000     0.0216913  
C195     C      0.510590000000     0.194690000000     0.546120000000    -0.0568305  
C196     C      0.515260000000     0.171740000000     0.563920000000     0.0128836  
C197     C      0.502100000000     0.164720000000     0.592450000000    -0.0731941  
C198     C      0.482600000000     0.179780000000     0.602270000000     0.0129026  
C199     C      0.491760000000     0.238960000000     0.538810000000     0.0217936  
C200     C      0.461310000000     0.240840000000     0.536080000000    -0.0566416  
C201     C      0.461570000000     0.268410000000     0.520680000000     0.0129768  
C202     C      0.492400000000     0.294800000000     0.508130000000    -0.0730845  
C203     C      0.522640000000     0.292550000000     0.010530000000     0.0128858  
C204     C      0.522280000000     0.264890000000     0.525570000000    -0.0566022  
C205     C      0.674120000000     0.413340000000     0.851560000000    -0.0567004  
C206     C      0.678630000000     0.443350000000     0.866150000000     0.0218766  
C207     C      0.711550000000     0.473630000000     0.866050000000    -0.0566749  
C208     C      0.739450000000     0.473640000000     0.851970000000     0.0130546  
C209     C      0.734990000000     0.443220000000     0.838110000000    -0.0733693  
C210     C      0.701950000000     0.413250000000     0.837810000000     0.0132411  
C211     C      0.649200000000     0.441960000000     0.882480000000     0.0215667  
C212     C      0.615810000000     0.424990000000     0.870350000000    -0.0566775  
C213     C      0.587180000000     0.418920000000     0.887040000000     0.0125512  
C214     C      0.591250000000     0.429680000000     0.916270000000    -0.0726931  
C215     C      0.624830000000     0.448500000000     0.927950000000     0.0125291  
C216     C      0.653580000000     0.454610000000     0.911180000000    -0.0559907  
C217     C      0.729770000000     0.276970000000     0.751300000000    -0.0561003  
C218     C      0.723150000000     0.279970000000     0.721810000000     0.0216896  
C219     C      0.742420000000     0.312530000000     0.707930000000    -0.056769   
C220     C      0.766080000000     0.341940000000     0.723620000000     0.0127774  
C221     C      0.771020000000     0.339490000000     0.753560000000    -0.0728999  
C222     C      0.753500000000     0.306500000000     0.767050000000     0.0128173  
C223     C      0.693820000000     0.250410000000     0.706410000000     0.0217009  
C224     C      0.687420000000     0.215910000000     0.709100000000    -0.056466   
C225     C      0.658090000000     0.188080000000     0.696170000000     0.0126619  
C226     C      0.634440000000     0.194280000000     0.680710000000    -0.0722218  
C227     C      0.641310000000     0.228840000000     0.677550000000     0.0127689  
C228     C      0.670670000000     0.256550000000     0.690150000000    -0.0563393  
C229     C      0.480230000000     0.987140000000     0.819090000000    -0.0557659  
C230     C      0.452930000000     0.988830000000     0.805330000000     0.0214551  
C231     C      0.418660000000     0.964490000000     0.813340000000    -0.0558648  
C232     C      0.411960000000     0.938600000000     0.834180000000     0.0116274  
C233     C      0.439410000000     0.936510000000     0.847220000000    -0.0715281  
C234     C      0.473570000000     0.961410000000     0.839740000000     0.0119589  
C235     C      0.460730000000     0.014380000000     0.781320000000     0.021885   
C236     C      0.490160000000     0.047970000000     0.782850000000    -0.0565855  
C237     C      0.501680000000     0.069510000000     0.758330000000     0.0132042  
C238     C      0.483770000000     0.058190000000     0.731830000000    -0.0731163  
C239     C      0.452680000000     0.025960000000     0.730870000000     0.0127121  
C240     C      0.441330000000     0.004160000000     0.755380000000    -0.0557892  
C241     C      0.549900000000     0.001740000000     0.559430000000    -0.0560098  
C242     C      0.516750000000     0.972340000000     0.555510000000     0.0216898  
C243     C      0.489730000000     0.968250000000     0.573890000000    -0.0557807  
C244     C      0.495260000000     0.993470000000     0.594760000000     0.012441   
C245     C      0.527900000000     0.023630000000     0.597730000000    -0.0725794  
C246     C      0.555430000000     0.027170000000     0.580350000000     0.0123061  
C247     C      0.509060000000     0.947680000000     0.030760000000     0.0219181  
C248     C      0.523480000000     0.960300000000     0.003080000000    -0.0555954  
C249     C      0.511100000000     0.938540000000     0.978630000000     0.0127438  
C250     C      0.483800000000     0.903910000000     0.981350000000    -0.0738152  
C251     C      0.471250000000     0.890520000000     0.009210000000     0.0136014  
C252     C      0.483970000000     0.912070000000     0.033680000000    -0.0564536  
C253     C      0.974820000000     0.466080000000     0.962490000000    -0.0565332  
C254     C      0.958000000000     0.483230000000     0.951030000000     0.0214993  
C255     C      0.967980000000     0.517180000000     0.960750000000    -0.0563436  
C256     C      0.993750000000     0.533460000000     0.981710000000     0.0115029  
C257     C      0.010270000000     0.516270000000     0.993570000000    -0.0717447  
C258     C      0.000670000000     0.482420000000     0.983710000000     0.0124398  
C259     C      0.930420000000     0.466580000000     0.928680000000     0.0217433  
C260     C      0.934610000000     0.449770000000     0.904300000000    -0.0561884  
C261     C      0.910790000000     0.438780000000     0.881310000000     0.0128947  
C262     C      0.882470000000     0.444490000000     0.882380000000    -0.0729264  
C263     C      0.877180000000     0.459260000000     0.907580000000     0.0129465  
C264     C      0.900820000000     0.470070000000     0.930480000000    -0.0567547  
C265     C      0.955890000000     0.541670000000     0.725510000000    -0.056384   
C266     C      0.943830000000     0.545070000000     0.698140000000     0.0219578  
C267     C      0.908540000000     0.534270000000     0.694780000000    -0.0569328  
C268     C      0.885370000000     0.518240000000     0.717810000000     0.0131245  
C269     C      0.897050000000     0.512300000000     0.744460000000    -0.0733454  
C270     C      0.932680000000     0.525250000000     0.748400000000     0.0133745  
C271     C      0.966940000000     0.554910000000     0.672440000000     0.0213655  
C272     C      0.000890000000     0.583580000000     0.673260000000    -0.0561263  
C273     C      0.023940000000     0.589440000000     0.650330000000     0.0126956  
C274     C      0.013540000000     0.566220000000     0.626650000000    -0.0725371  
C275     C      0.979260000000     0.538380000000     0.625400000000     0.0130593  
C276     C      0.956140000000     0.532950000000     0.647930000000    -0.0561617  
C277     C      0.282680000000     0.721920000000     0.959370000000    -0.0565369  
C278     C      0.258420000000     0.732160000000     0.966680000000     0.0216345  
C279     C      0.266500000000     0.766770000000     0.960920000000    -0.0561492  
C280     C      0.298160000000     0.790500000000     0.947890000000     0.0120772  
C281     C      0.322300000000     0.780040000000     0.940620000000    -0.071639   
C282     C      0.314140000000     0.745500000000     0.946520000000     0.0124417  
C283     C      0.225170000000     0.706470000000     0.980570000000     0.0213367  
C284     C      0.207540000000     0.671650000000     0.970750000000    -0.0564978  
C285     C      0.178730000000     0.646190000000     0.985710000000     0.0123193  
C286     C      0.166600000000     0.654900000000     0.010780000000    -0.0723629  
C287     C      0.182970000000     0.690050000000     0.519800000000     0.0121422  
C288     C      0.212080000000     0.715640000000     0.004820000000    -0.0556762  
C289     C      0.462560000000     0.434680000000     0.594950000000    -0.0568893  
C290     C      0.468390000000     0.469010000000     0.593340000000     0.0218276  
C291     C      0.487430000000     0.490290000000     0.569770000000    -0.0562784  
C292     C      0.498370000000     0.476600000000     0.547260000000     0.0129639  
C293     C      0.490420000000     0.441480000000     0.548060000000    -0.073006   
C294     C      0.473370000000     0.421050000000     0.572560000000     0.0131368  
C295     C      0.452050000000     0.481140000000     0.615050000000     0.0216587  
C296     C      0.417380000000     0.458820000000     0.623030000000    -0.0566049  
C297     C      0.401630000000     0.469040000000     0.643980000000     0.0124242  
C298     C      0.420140000000     0.501870000000     0.657550000000    -0.0721627  
C299     C      0.454630000000     0.524670000000     0.649160000000     0.0123715  
C300     C      0.470440000000     0.514430000000     0.627950000000    -0.0562787  
C301     C      0.398800000000     0.377530000000     0.863320000000    -0.0566744  
C302     C      0.390390000000     0.404170000000     0.866200000000     0.0217244  
C303     C      0.396080000000     0.421460000000     0.893040000000    -0.0561463  
C304     C      0.412400000000     0.414240000000     0.915760000000     0.0131741  
C305     C      0.422980000000     0.389320000000     0.912190000000    -0.0730288  
C306     C      0.414750000000     0.370000000000     0.886200000000     0.012909   
C307     C      0.380600000000     0.417500000000     0.840380000000     0.0220551  
C308     C      0.400630000000     0.425510000000     0.814940000000    -0.0566201  
C309     C      0.395730000000     0.443490000000     0.792170000000     0.0138533  
C310     C      0.370390000000     0.453440000000     0.794120000000    -0.073718   
C311     C      0.348910000000     0.443660000000     0.818790000000     0.0131413  
C312     C      0.354220000000     0.426120000000     0.841900000000    -0.0567866  
C313     C      0.387900000000     0.656650000000     0.805470000000    -0.0570872  
C314     C      0.421980000000     0.684820000000     0.804930000000     0.0214297  
C315     C      0.447800000000     0.680810000000     0.790940000000    -0.0565723  
C316     C      0.439260000000     0.649300000000     0.776790000000     0.0123835  
C317     C      0.404930000000     0.621270000000     0.777000000000    -0.0727822  
C318     C      0.379520000000     0.625170000000     0.791860000000     0.0125142  
C319     C      0.429540000000     0.718420000000     0.818260000000     0.0217638  
C320     C      0.410080000000     0.733960000000     0.809810000000    -0.0574982  
C321     C      0.413260000000     0.762930000000     0.824720000000     0.0133304  
C322     C      0.435680000000     0.776780000000     0.848710000000    -0.0740851  
C323     C      0.456460000000     0.762280000000     0.856340000000     0.0132053  
C324     C      0.453540000000     0.733380000000     0.841070000000    -0.0568584  
C325     C      0.197970000000     0.559030000000     0.646550000000    -0.0566911  
C326     C      0.200680000000     0.529300000000     0.640490000000     0.0214204  
C327     C      0.177370000000     0.504310000000     0.620690000000    -0.0561204  
C328     C      0.152780000000     0.509870000000     0.606250000000     0.0120995  
C329     C      0.150970000000     0.540310000000     0.611660000000    -0.0725252  
C330     C      0.173380000000     0.564420000000     0.632410000000     0.0120829  
C331     C      0.229120000000     0.525860000000     0.653800000000     0.0216036  
C332     C      0.262980000000     0.554530000000     0.653310000000    -0.0568955  
C333     C      0.289890000000     0.552660000000     0.667010000000     0.0124796  
C334     C      0.283610000000     0.522140000000     0.681760000000    -0.0726734  
C335     C      0.249850000000     0.493090000000     0.681840000000     0.0124424  
C336     C      0.222830000000     0.494860000000     0.667780000000    -0.0563626  
Cd1      Cd     0.369780000000     0.524400000000     0.228480000000     0.509354   
Cd2      Cd     0.086210000000     0.569720000000     0.061710000000     0.509828   
Cd3      Cd     0.423890000000     0.850580000000     0.403970000000     0.506776   
Cd4      Cd     0.822510000000     0.435390000000     0.304790000000     0.506916   
Cd5      Cd     0.499350000000     0.389120000000     0.471130000000     0.507445   
Cd6      Cd     0.535270000000     0.109040000000     0.150830000000     0.506901   
Cd7      Cd     0.369780000000     0.524400000000     0.728470000000     0.509379   
Cd8      Cd     0.086210000000     0.569720000000     0.561720000000     0.509778   
Cd9      Cd     0.423890000000     0.850570000000     0.903970000000     0.506713   
Cd10     Cd     0.822510000000     0.435390000000     0.804800000000     0.506948   
Cd11     Cd     0.499340000000     0.389110000000     0.971130000000     0.507369   
Cd12     Cd     0.535260000000     0.109050000000     0.650840000000     0.506874   
H1       H      0.521830000000     0.200250000000     0.024500000000     0.0500439  
H2       H      0.530190000000     0.160370000000     0.055580000000     0.0468061  
H3       H      0.472070000000     0.174810000000     0.124120000000     0.0467346  
H4       H      0.463930000000     0.215120000000     0.092880000000     0.0503585  
H5       H      0.437380000000     0.221090000000     0.045920000000     0.0502526  
H6       H      0.437890000000     0.269540000000     0.019260000000     0.046697   
H7       H      0.546800000000     0.312460000000     0.501120000000     0.046317   
H8       H      0.546290000000     0.264460000000     0.027620000000     0.0502971  
H9       H      0.715740000000     0.497190000000     0.377000000000     0.0501682  
H10      H      0.764680000000     0.497110000000     0.352630000000     0.0464715  
H11      H      0.697660000000     0.389400000000     0.327320000000     0.0463516  
H12      H      0.649240000000     0.389450000000     0.351560000000     0.0504324  
H13      H      0.611700000000     0.415500000000     0.348130000000     0.0499006  
H14      H      0.561710000000     0.404690000000     0.377270000000     0.0464868  
H15      H      0.628800000000     0.457170000000     0.450400000000     0.0469503  
H16      H      0.679000000000     0.467630000000     0.421170000000     0.0502224  
H17      H      0.738320000000     0.315520000000     0.185110000000     0.0498391  
H18      H      0.779430000000     0.366920000000     0.212490000000     0.046291   
H19      H      0.756800000000     0.303770000000     0.290090000000     0.0469415  
H20      H      0.715210000000     0.252260000000     0.262630000000     0.0502616  
H21      H      0.704910000000     0.210430000000     0.221400000000     0.0500799  
H22      H      0.653400000000     0.161680000000     0.199010000000     0.0467365  
H23      H      0.623610000000     0.234480000000     0.165760000000     0.0464593  
H24      H      0.674560000000     0.282730000000     0.188010000000     0.0504542  
H25      H      0.397050000000     0.965210000000     0.303280000000     0.0496456  
H26      H      0.385350000000     0.919780000000     0.339540000000     0.0466864  
H27      H      0.495340000000     0.960570000000     0.349360000000     0.0481592  
H28      H      0.506920000000     0.004920000000     0.313120000000     0.0503025  
H29      H      0.505200000000     0.057050000000     0.302700000000     0.0495787  
H30      H      0.525490000000     0.094440000000     0.259810000000     0.0453647  
H31      H      0.438350000000     0.016560000000     0.210710000000     0.0468658  
H32      H      0.418640000000     0.978430000000     0.253370000000     0.0500605  
H33      H      0.463700000000     0.946390000000     0.071280000000     0.0501435  
H34      H      0.473490000000     0.989890000000     0.107810000000     0.0475112  
H35      H      0.580930000000     0.050080000000     0.082230000000     0.0467003  
H36      H      0.571410000000     0.005520000000     0.045900000000     0.0496098  
H37      H      0.542670000000     0.987570000000     0.499890000000     0.0498868  
H38      H      0.521250000000     0.949580000000     0.457390000000     0.046467   
H39      H      0.450480000000     0.863760000000     0.512000000000     0.0454267  
H40      H      0.472950000000     0.901190000000     0.554760000000     0.0495755  
H41      H      0.956050000000     0.531400000000     0.451920000000     0.0503633  
H42      H      0.000580000000     0.559600000000     0.488700000000     0.0479175  
H43      H      0.012990000000     0.468540000000     0.492450000000     0.0471758  
H44      H      0.967640000000     0.439890000000     0.455380000000     0.0501392  
H45      H      0.957220000000     0.446780000000     0.402300000000     0.050281   
H46      H      0.915490000000     0.427430000000     0.362160000000     0.0469827  
H47      H      0.855370000000     0.463590000000     0.409230000000     0.0462125  
H48      H      0.896470000000     0.482210000000     0.449280000000     0.0499243  
H49      H      0.898640000000     0.536800000000     0.173920000000     0.0502338  
H50      H      0.858070000000     0.508620000000     0.214130000000     0.0468309  
H51      H      0.942460000000     0.521200000000     0.268760000000     0.0458944  
H52      H      0.982900000000     0.549530000000     0.228650000000     0.0507632  
H53      H      0.009830000000     0.600880000000     0.191940000000     0.0502199  
H54      H      0.050270000000     0.611060000000     0.151810000000     0.0457018  
H55      H      0.970510000000     0.520190000000     0.107310000000     0.04576    
H56      H      0.930300000000     0.510420000000     0.146840000000     0.0508248  
H57      H      0.248250000000     0.775380000000     0.466230000000     0.0500617  
H58      H      0.303770000000     0.817000000000     0.443670000000     0.0467134  
H59      H      0.332170000000     0.736580000000     0.441340000000     0.047389   
H60      H      0.277590000000     0.695690000000     0.464000000000     0.0501416  
H61      H      0.216470000000     0.663870000000     0.451760000000     0.0498601  
H62      H      0.166390000000     0.619440000000     0.477930000000     0.046973   
H63      H      0.174150000000     0.697530000000     0.039020000000     0.0467921  
H64      H      0.225180000000     0.742250000000     0.512960000000     0.0501154  
H65      H      0.492280000000     0.516850000000     0.068010000000     0.0504589  
H66      H      0.511510000000     0.492960000000     0.028650000000     0.0469864  
H67      H      0.467190000000     0.394010000000     0.074000000000     0.0463149  
H68      H      0.448570000000     0.417900000000     0.113160000000     0.0501747  
H69      H      0.402260000000     0.433320000000     0.113000000000     0.0506574  
H70      H      0.374940000000     0.450920000000     0.149750000000     0.0475036  
H71      H      0.469520000000     0.550150000000     0.159260000000     0.0472354  
H72      H      0.497190000000     0.532140000000     0.122160000000     0.0503229  
H73      H      0.390120000000     0.442280000000     0.395830000000     0.0507348  
H74      H      0.418230000000     0.429400000000     0.435630000000     0.0459853  
H75      H      0.422540000000     0.350590000000     0.382850000000     0.0468846  
H76      H      0.394440000000     0.363640000000     0.342910000000     0.0502015  
H77      H      0.421420000000     0.419610000000     0.313280000000     0.0508354  
H78      H      0.412540000000     0.450520000000     0.273340000000     0.0458511  
H79      H      0.329190000000     0.451050000000     0.320850000000     0.0458674  
H80      H      0.338400000000     0.420190000000     0.361280000000     0.050312   
H81      H      0.474260000000     0.702290000000     0.290290000000     0.0510732  
H82      H      0.459380000000     0.646960000000     0.265570000000     0.0464229  
H83      H      0.352840000000     0.604130000000     0.292470000000     0.0471239  
H84      H      0.367620000000     0.659070000000     0.316370000000     0.0510345  
H85      H      0.391580000000     0.722980000000     0.292130000000     0.0509945  
H86      H      0.397000000000     0.773530000000     0.318150000000     0.046947   
H87      H      0.474020000000     0.772460000000     0.374680000000     0.0462764  
H88      H      0.468730000000     0.721690000000     0.347980000000     0.0512239  
H89      H      0.179000000000     0.481190000000     0.115620000000     0.0505961  
H90      H      0.135790000000     0.490790000000     0.090440000000     0.0469331  
H91      H      0.172550000000     0.588020000000     0.137290000000     0.0473408  
H92      H      0.215260000000     0.578440000000     0.162050000000     0.0502536  
H93      H      0.268640000000     0.578590000000     0.142370000000     0.0504857  
H94      H      0.315580000000     0.575480000000     0.166430000000     0.0471068  
H95      H      0.244270000000     0.469170000000     0.192960000000     0.0468998  
H96      H      0.196910000000     0.472410000000     0.168490000000     0.0507246  
H97      H      0.521800000000     0.200230000000     0.524500000000     0.0500304  
H98      H      0.530170000000     0.160360000000     0.555580000000     0.0468046  
H99      H      0.472080000000     0.174830000000     0.624130000000     0.0467453  
H100     H      0.463940000000     0.215130000000     0.592890000000     0.0503671  
H101     H      0.437380000000     0.221110000000     0.545940000000     0.0502716  
H102     H      0.437890000000     0.269560000000     0.519270000000     0.0466441  
H103     H      0.546820000000     0.312480000000     0.001150000000     0.0463719  
H104     H      0.546270000000     0.264440000000     0.527600000000     0.0503456  
H105     H      0.715730000000     0.497180000000     0.877000000000     0.0501538  
H106     H      0.764670000000     0.497100000000     0.852620000000     0.0464647  
H107     H      0.697650000000     0.389390000000     0.827340000000     0.0463401  
H108     H      0.649240000000     0.389440000000     0.851580000000     0.0504463  
H109     H      0.611690000000     0.415480000000     0.848140000000     0.0498895  
H110     H      0.561700000000     0.404670000000     0.877270000000     0.0464808  
H111     H      0.628790000000     0.457170000000     0.950400000000     0.0469332  
H112     H      0.678990000000     0.467630000000     0.921170000000     0.0502112  
H113     H      0.738310000000     0.315510000000     0.685110000000     0.0498438  
H114     H      0.779430000000     0.366920000000     0.712490000000     0.0462686  
H115     H      0.756800000000     0.303770000000     0.790090000000     0.0469282  
H116     H      0.715200000000     0.252260000000     0.762630000000     0.0502634  
H117     H      0.704900000000     0.210430000000     0.721400000000     0.0500758  
H118     H      0.653400000000     0.161680000000     0.699010000000     0.0467412  
H119     H      0.623610000000     0.234480000000     0.665760000000     0.0464874  
H120     H      0.674550000000     0.282740000000     0.688010000000     0.0503922  
H121     H      0.397050000000     0.965210000000     0.803290000000     0.0496569  
H122     H      0.385350000000     0.919780000000     0.839550000000     0.0466875  
H123     H      0.495350000000     0.960570000000     0.849350000000     0.0481501  
H124     H      0.506920000000     0.004920000000     0.813120000000     0.0503012  
H125     H      0.505200000000     0.057050000000     0.802700000000     0.0495654  
H126     H      0.525480000000     0.094440000000     0.759820000000     0.0453527  
H127     H      0.438350000000     0.016560000000     0.710710000000     0.0468901  
H128     H      0.418630000000     0.978430000000     0.753380000000     0.0500302  
H129     H      0.463700000000     0.946400000000     0.571280000000     0.0501445  
H130     H      0.473480000000     0.989890000000     0.607800000000     0.0475302  
H131     H      0.580920000000     0.050080000000     0.582230000000     0.0467132  
H132     H      0.571400000000     0.005520000000     0.545910000000     0.0495951  
H133     H      0.542670000000     0.987570000000     0.999890000000     0.0497361  
H134     H      0.521260000000     0.949580000000     0.957390000000     0.0464904  
H135     H      0.450490000000     0.863760000000     0.011990000000     0.0454392  
H136     H      0.472960000000     0.901180000000     0.054760000000     0.0495427  
H137     H      0.956060000000     0.531410000000     0.951910000000     0.0503712  
H138     H      0.000590000000     0.559610000000     0.988690000000     0.0478502  
H139     H      0.012990000000     0.468540000000     0.992450000000     0.0471234  
H140     H      0.967630000000     0.439890000000     0.955390000000     0.0501573  
H141     H      0.957210000000     0.446770000000     0.902310000000     0.0502522  
H142     H      0.915480000000     0.427420000000     0.862160000000     0.0469805  
H143     H      0.855370000000     0.463610000000     0.909230000000     0.0462115  
H144     H      0.896470000000     0.482220000000     0.949280000000     0.0498666  
H145     H      0.898640000000     0.536800000000     0.673930000000     0.0502366  
H146     H      0.858070000000     0.508610000000     0.714140000000     0.0468447  
H147     H      0.942450000000     0.521200000000     0.768760000000     0.0458767  
H148     H      0.982900000000     0.549520000000     0.728650000000     0.0507377  
H149     H      0.009830000000     0.600870000000     0.691940000000     0.0502525  
H150     H      0.050270000000     0.611060000000     0.651810000000     0.0456904  
H151     H      0.970510000000     0.520180000000     0.607310000000     0.0457544  
H152     H      0.930300000000     0.510410000000     0.646850000000     0.0508225  
H153     H      0.248260000000     0.775380000000     0.966230000000     0.0500379  
H154     H      0.303780000000     0.816990000000     0.943670000000     0.0467241  
H155     H      0.332180000000     0.736580000000     0.941350000000     0.047391   
H156     H      0.277600000000     0.695690000000     0.964010000000     0.0501329  
H157     H      0.216480000000     0.663870000000     0.951770000000     0.0498495  
H158     H      0.166400000000     0.619440000000     0.977930000000     0.0469874  
H159     H      0.174140000000     0.697530000000     0.539020000000     0.0467524  
H160     H      0.225180000000     0.742250000000     0.012960000000     0.0500962  
H161     H      0.492280000000     0.516860000000     0.567990000000     0.0504354  
H162     H      0.511510000000     0.492960000000     0.528640000000     0.0469761  
H163     H      0.467250000000     0.394030000000     0.574010000000     0.0462873  
H164     H      0.448630000000     0.417920000000     0.613170000000     0.0501885  
H165     H      0.402290000000     0.433310000000     0.613010000000     0.0506385  
H166     H      0.374960000000     0.450910000000     0.649760000000     0.0475161  
H167     H      0.469520000000     0.550160000000     0.659240000000     0.0472414  
H168     H      0.497190000000     0.532160000000     0.622150000000     0.0503606  
H169     H      0.390120000000     0.442280000000     0.895830000000     0.0507105  
H170     H      0.418230000000     0.429410000000     0.935620000000     0.045976   
H171     H      0.422530000000     0.350590000000     0.882840000000     0.0468886  
H172     H      0.394440000000     0.363640000000     0.842900000000     0.0501705  
H173     H      0.421420000000     0.419610000000     0.813270000000     0.0508771  
H174     H      0.412540000000     0.450520000000     0.773330000000     0.0458224  
H175     H      0.329200000000     0.451060000000     0.820840000000     0.0458711  
H176     H      0.338400000000     0.420190000000     0.861280000000     0.0502778  
H177     H      0.474270000000     0.702290000000     0.790290000000     0.051053   
H178     H      0.459390000000     0.646960000000     0.765570000000     0.0464183  
H179     H      0.352840000000     0.604140000000     0.792450000000     0.0471139  
H180     H      0.367620000000     0.659070000000     0.816350000000     0.0510504  
H181     H      0.391590000000     0.722980000000     0.792130000000     0.0509812  
H182     H      0.397000000000     0.773530000000     0.818140000000     0.0469469  
H183     H      0.474020000000     0.772460000000     0.874680000000     0.0463077  
H184     H      0.468730000000     0.721690000000     0.847970000000     0.051201   
H185     H      0.179000000000     0.481190000000     0.615620000000     0.0506334  
H186     H      0.135780000000     0.490780000000     0.590440000000     0.0469031  
H187     H      0.172560000000     0.588030000000     0.637280000000     0.0473512  
H188     H      0.215270000000     0.578450000000     0.662040000000     0.0502459  
H189     H      0.268650000000     0.578580000000     0.642360000000     0.0505177  
H190     H      0.315590000000     0.575470000000     0.666410000000     0.0470959  
H191     H      0.244270000000     0.469170000000     0.692950000000     0.0469014  
H192     H      0.196910000000     0.472410000000     0.668490000000     0.0506927  
O1       O      0.414050000000     0.585350000000     0.242490000000    -0.230791   
O2       O      0.342180000000     0.479300000000     0.267440000000    -0.231357   
O3       O      0.419020000000     0.539750000000     0.194940000000    -0.229157   
O4       O      0.343020000000     0.546850000000     0.195370000000    -0.24074    
O5       O      0.307760000000     0.496540000000     0.213960000000    -0.230647   
O6       O      0.372700000000     0.489780000000     0.188900000000    -0.239633   
O7       O      0.365030000000     0.561830000000     0.264730000000    -0.240675   
O8       O      0.394830000000     0.495320000000     0.255900000000    -0.240528   
O9       O      0.051620000000     0.519210000000     0.029060000000    -0.228565   
O10      O      0.123440000000     0.632780000000     0.048880000000    -0.230905   
O11      O      0.108010000000     0.529070000000     0.074700000000    -0.231406   
O12      O      0.033950000000     0.541800000000     0.090890000000    -0.239878   
O13      O      0.065920000000     0.597240000000     0.098330000000    -0.230183   
O14      O      0.126740000000     0.576300000000     0.099780000000    -0.241665   
O15      O      0.045530000000     0.564590000000     0.024630000000    -0.239545   
O16      O      0.128930000000     0.595000000000     0.023180000000    -0.240733   
O17      O      0.478050000000     0.892000000000     0.429970000000    -0.2325     
O18      O      0.364940000000     0.835880000000     0.420620000000    -0.228838   
O19      O      0.451100000000     0.814810000000     0.390570000000    -0.235301   
O20      O      0.457830000000     0.903650000000     0.375890000000    -0.235668   
O21      O      0.403130000000     0.885190000000     0.376070000000    -0.230493   
O22      O      0.414800000000     0.815730000000     0.360350000000    -0.24182    
O23      O      0.434280000000     0.859090000000     0.456720000000    -0.238871   
O24      O      0.378630000000     0.795480000000     0.423210000000    -0.23714    
O25      O      0.794090000000     0.468600000000     0.321680000000    -0.231666   
O26      O      0.862080000000     0.422910000000     0.333990000000    -0.231156   
O27      O      0.840120000000     0.479480000000     0.265360000000    -0.232657   
O28      O      0.801890000000     0.401610000000     0.259780000000    -0.238954   
O29      O      0.796340000000     0.371110000000     0.297990000000    -0.232308   
O30      O      0.880840000000     0.474670000000     0.285940000000    -0.238611   
O31      O      0.762340000000     0.412600000000     0.319220000000    -0.239438   
O32      O      0.840710000000     0.451440000000     0.355110000000    -0.239187   
O33      O      0.467040000000     0.327240000000     0.487810000000    -0.231267   
O34      O      0.513890000000     0.442050000000     0.500630000000    -0.230405   
O35      O      0.453550000000     0.362580000000     0.433340000000    -0.23167    
O36      O      0.530430000000     0.396830000000     0.425560000000    -0.239513   
O37      O      0.562310000000     0.427620000000     0.461240000000    -0.231904   
O38      O      0.462540000000     0.411080000000     0.452100000000    -0.238971   
O39      O      0.522670000000     0.353030000000     0.489180000000    -0.239477   
O40      O      0.481610000000     0.391830000000     0.520570000000    -0.239701   
O41      O      0.483300000000     0.071850000000     0.181130000000    -0.231088   
O42      O      0.595990000000     0.133910000000     0.167830000000    -0.229189   
O43      O      0.500940000000     0.137760000000     0.138460000000    -0.233568   
O44      O      0.506140000000     0.050290000000     0.130300000000    -0.238396   
O45      O      0.560350000000     0.080510000000     0.120150000000    -0.232138   
O46      O      0.531340000000     0.133290000000     0.104180000000    -0.240258   
O47      O      0.532070000000     0.098900000000     0.203450000000    -0.239161   
O48      O      0.576970000000     0.169840000000     0.161940000000    -0.238056   
O49      O      0.414060000000     0.585350000000     0.742490000000    -0.230855   
O50      O      0.342190000000     0.479300000000     0.767430000000    -0.231507   
O51      O      0.419030000000     0.539760000000     0.694930000000    -0.229108   
O52      O      0.343030000000     0.546850000000     0.695360000000    -0.240778   
O53      O      0.307760000000     0.496540000000     0.713940000000    -0.230679   
O54      O      0.372710000000     0.489780000000     0.688900000000    -0.23963    
O55      O      0.365040000000     0.561830000000     0.764720000000    -0.240699   
O56      O      0.394830000000     0.495330000000     0.755900000000    -0.240621   
O57      O      0.051620000000     0.519210000000     0.529060000000    -0.228462   
O58      O      0.123440000000     0.632780000000     0.548880000000    -0.23094    
O59      O      0.108010000000     0.529070000000     0.574700000000    -0.231421   
O60      O      0.033950000000     0.541790000000     0.590900000000    -0.239724   
O61      O      0.065920000000     0.597240000000     0.598340000000    -0.230087   
O62      O      0.126740000000     0.576300000000     0.599780000000    -0.241682   
O63      O      0.045520000000     0.564590000000     0.524630000000    -0.239493   
O64      O      0.128930000000     0.595000000000     0.523180000000    -0.240766   
O65      O      0.478060000000     0.892000000000     0.929970000000    -0.232479   
O66      O      0.364950000000     0.835880000000     0.920620000000    -0.228833   
O67      O      0.451110000000     0.814800000000     0.890570000000    -0.23527    
O68      O      0.457840000000     0.903650000000     0.875890000000    -0.235626   
O69      O      0.403130000000     0.885190000000     0.876070000000    -0.230402   
O70      O      0.414800000000     0.815730000000     0.860350000000    -0.241728   
O71      O      0.434290000000     0.859080000000     0.956720000000    -0.238865   
O72      O      0.378640000000     0.795470000000     0.923210000000    -0.237067   
O73      O      0.794080000000     0.468600000000     0.821680000000    -0.231642   
O74      O      0.862070000000     0.422910000000     0.833990000000    -0.231071   
O75      O      0.840120000000     0.479480000000     0.765370000000    -0.232651   
O76      O      0.801880000000     0.401610000000     0.759790000000    -0.238985   
O77      O      0.796340000000     0.371110000000     0.797990000000    -0.232302   
O78      O      0.880830000000     0.474660000000     0.785940000000    -0.238681   
O79      O      0.762330000000     0.412600000000     0.819220000000    -0.239406   
O80      O      0.840710000000     0.451450000000     0.855110000000    -0.239082   
O81      O      0.467040000000     0.327230000000     0.987800000000    -0.23136    
O82      O      0.513890000000     0.442040000000     0.000640000000    -0.230255   
O83      O      0.453540000000     0.362570000000     0.933340000000    -0.231643   
O84      O      0.530420000000     0.396820000000     0.925560000000    -0.239402   
O85      O      0.562300000000     0.427630000000     0.961240000000    -0.231805   
O86      O      0.462550000000     0.411090000000     0.952090000000    -0.238985   
O87      O      0.522670000000     0.353040000000     0.989200000000    -0.239542   
O88      O      0.481570000000     0.391810000000     0.020560000000    -0.239521   
O89      O      0.483290000000     0.071850000000     0.681140000000    -0.231052   
O90      O      0.595990000000     0.133910000000     0.667830000000    -0.229189   
O91      O      0.500940000000     0.137770000000     0.638470000000    -0.233461   
O92      O      0.506130000000     0.050290000000     0.630300000000    -0.238431   
O93      O      0.560340000000     0.080510000000     0.620150000000    -0.232139   
O94      O      0.531330000000     0.133280000000     0.604180000000    -0.240122   
O95      O      0.532070000000     0.098900000000     0.703450000000    -0.239068   
O96      O      0.576970000000     0.169840000000     0.661950000000    -0.238215   


