data_structure

_audit_creation_method RASPA-1.0
_audit_creation_date 2023-5-22
_audit_author_name 'Poobodin Mano'

_cell_length_a    44.7604
_cell_length_b    43.8178
_cell_length_c    32.2147
_cell_angle_alpha 89.9995
_cell_angle_beta  89.9987
_cell_angle_gamma 90.0016
_cell_volume      63182.8

_symmetry_cell_setting          triclinic
_symmetry_space_group_name_Hall 'P 1'
_symmetry_space_group_name_H-M  'P 1'
_symmetry_Int_Tables_number     1

_symmetry_equiv_pos_as_xyz 'x,y,z'

loop_
_atom_site_label
_atom_site_type_symbol
_atom_site_fract_x
_atom_site_fract_y
_atom_site_fract_z
_atom_site_charge
C1       C      0.786180000000     0.875550000000     0.481930000000     0.289571   
C2       C      0.853350000000     0.804650000000     0.491820000000     0.286619   
C3       C      0.757690000000     0.776340000000     0.545410000000     0.263734   
C4       C      0.764670000000     0.788540000000     0.404510000000     0.287643   
C5       C      0.862880000000     0.866430000000     0.685150000000     0.284529   
C6       C      0.793900000000     0.937160000000     0.658930000000     0.289755   
C7       C      0.768870000000     0.844780000000     0.602660000000     0.281815   
C8       C      0.773040000000     0.840770000000     0.742420000000     0.287702   
C9       C      0.678620000000     0.719910000000     0.130360000000     0.289356   
C10      C      0.588660000000     0.707030000000     0.045540000000     0.288698   
C11      C      0.679060000000     0.729360000000     0.984260000000     0.287953   
C12      C      0.662980000000     0.633600000000     0.065950000000     0.289295   
C13      C      0.807830000000     0.104550000000     0.492430000000     0.287067   
C14      C      0.881590000000     0.178500000000     0.504620000000     0.287889   
C15      C      0.789180000000     0.193880000000     0.423810000000     0.288776   
C16      C      0.796710000000     0.200700000000     0.570320000000     0.271396   
C17      C      0.877000000000     0.236940000000     0.708030000000     0.287133   
C18      C      0.804870000000     0.165440000000     0.667380000000     0.295225   
C19      C      0.790140000000     0.245810000000     0.772980000000     0.290798   
C20      C      0.788160000000     0.264470000000     0.627590000000     0.264774   
C21      C      0.605880000000     0.335840000000     0.123800000000     0.28727    
C22      C      0.698510000000     0.314790000000     0.043030000000     0.287242   
C23      C      0.675380000000     0.405690000000     0.104660000000     0.2893     
C24      C      0.696150000000     0.307540000000     0.183890000000     0.289162   
C25      C      0.152630000000     0.887540000000     0.513460000000     0.291603   
C26      C      0.077860000000     0.817640000000     0.492820000000     0.287206   
C27      C      0.170080000000     0.804050000000     0.422670000000     0.291884   
C28      C      0.163340000000     0.788630000000     0.569010000000     0.265143   
C29      C      0.162870000000     0.939410000000     0.705650000000     0.288986   
C30      C      0.087010000000     0.867360000000     0.712930000000     0.286596   
C31      C      0.181890000000     0.855410000000     0.633930000000     0.279108   
C32      C      0.175420000000     0.842300000000     0.778610000000     0.287708   
C33      C      0.272630000000     0.735240000000     0.021130000000     0.288361   
C34      C      0.364730000000     0.712590000000     0.073940000000     0.287975   
C35      C      0.271710000000     0.732080000000     0.160810000000     0.288109   
C36      C      0.298490000000     0.641020000000     0.106720000000     0.288642   
C37      C      0.105190000000     0.194340000000     0.522700000000     0.290387   
C38      C      0.168240000000     0.116510000000     0.534690000000     0.288446   
C39      C      0.194810000000     0.211880000000     0.457550000000     0.289541   
C40      C      0.199970000000     0.203760000000     0.600850000000     0.28199    
C41      C      0.101550000000     0.241310000000     0.722540000000     0.285571   
C42      C      0.168410000000     0.169050000000     0.717540000000     0.289559   
C43      C      0.196140000000     0.269960000000     0.663060000000     0.267232   
C44      C      0.193830000000     0.255500000000     0.800670000000     0.289218   
C45      C      0.380890000000     0.339340000000     0.139800000000     0.290797   
C46      C      0.289100000000     0.318040000000     0.212000000000     0.289745   
C47      C      0.308170000000     0.413460000000     0.147750000000     0.289271   
C48      C      0.291140000000     0.326320000000     0.066120000000     0.290789   
C49      C      0.214130000000     0.303720000000     0.894060000000    -0.0561258  
C50      C      0.235640000000     0.285390000000     0.913800000000     0.0220144  
C51      C      0.243290000000     0.257180000000     0.895980000000    -0.0561755  
C52      C      0.229770000000     0.247550000000     0.859160000000     0.0133241  
C53      C      0.208240000000     0.265860000000     0.839470000000    -0.0727813  
C54      C      0.200520000000     0.294020000000     0.857320000000     0.0131994  
C55      C      0.250120000000     0.295730000000     0.952790000000     0.0222729  
C56      C      0.259640000000     0.326110000000     0.957120000000    -0.0565138  
C57      C      0.273150000000     0.335940000000     0.993830000000     0.0135907  
C58      C      0.277330000000     0.315620000000     0.027080000000    -0.0736372  
C59      C      0.267910000000     0.285210000000     0.022770000000     0.0134552  
C60      C      0.254490000000     0.275340000000     0.985940000000    -0.056598   
C61      C      0.271520000000     0.258530000000     0.293740000000    -0.0560593  
C62      C      0.248170000000     0.272490000000     0.315920000000     0.0221989  
C63      C      0.238300000000     0.301550000000     0.303410000000    -0.0561238  
C64      C      0.251560000000     0.316340000000     0.269650000000     0.0130269  
C65      C      0.274930000000     0.302370000000     0.247600000000    -0.0730519  
C66      C      0.284740000000     0.273290000000     0.259950000000     0.013266   
C67      C      0.234320000000     0.256900000000     0.352150000000     0.0220349  
C68      C      0.228650000000     0.225330000000     0.351250000000    -0.0558403  
C69      C      0.215830000000     0.210680000000     0.385450000000     0.0130358  
C70      C      0.208360000000     0.227290000000     0.421290000000    -0.0723338  
C71      C      0.213960000000     0.258840000000     0.422200000000     0.0130838  
C72      C      0.226810000000     0.273470000000     0.388040000000    -0.0556489  
C73      C      0.109340000000     0.120140000000     0.647440000000    -0.0266774  
C74      C      0.090850000000     0.105540000000     0.676680000000     0.00337521 
C75      C      0.073490000000     0.123570000000     0.703680000000    -0.0325311  
C76      C      0.074550000000     0.155420000000     0.701240000000    -0.0476982  
C77      C      0.093120000000     0.169570000000     0.672260000000     0.036603   
C78      C      0.110550000000     0.151980000000     0.645520000000    -0.0444836  
C79      C      0.089770000000     0.071700000000     0.679020000000     0.00985463 
C80      C      0.089570000000     0.054030000000     0.642520000000    -0.039586   
C81      C      0.088700000000     0.022200000000     0.644740000000    -0.0408781  
C82      C      0.088070000000     0.007630000000     0.683250000000     0.0122914  
C83      C      0.088300000000     0.024860000000     0.719680000000    -0.0383712  
C84      C      0.089030000000     0.056730000000     0.717690000000    -0.0381464  
C85      C      0.310220000000     0.564880000000     0.159830000000    -0.056252   
C86      C      0.298080000000     0.544410000000     0.130780000000     0.021873   
C87      C      0.285240000000     0.556100000000     0.094240000000    -0.0558843  
C88      C      0.285020000000     0.587510000000     0.086590000000     0.0128324  
C89      C      0.297630000000     0.607880000000     0.115350000000    -0.0727868  
C90      C      0.309990000000     0.596260000000     0.152210000000     0.0126878  
C91      C      0.299820000000     0.510950000000     0.137810000000     0.0220504  
C92      C      0.326120000000     0.497730000000     0.153490000000    -0.0560787  
C93      C      0.328510000000     0.466110000000     0.157840000000     0.0129358  
C94      C      0.304640000000     0.447000000000     0.146630000000    -0.07264    
C95      C      0.278030000000     0.460210000000     0.132010000000     0.0131459  
C96      C      0.275660000000     0.491860000000     0.127600000000    -0.0562778  
C97      C      0.176210000000     0.019990000000     0.743240000000    -0.0577056  
C98      C      0.170710000000     0.037210000000     0.707180000000     0.0224375  
C99      C      0.164590000000     0.021770000000     0.669880000000    -0.0574641  
C100     C      0.162840000000     0.989900000000     0.669170000000     0.0122702  
C101     C      0.167160000000     0.972860000000     0.705590000000    -0.0752734  
C102     C      0.174410000000     0.988200000000     0.742470000000     0.0129252  
C103     C      0.170230000000     0.071100000000     0.709160000000     0.021052   
C104     C      0.157690000000     0.085810000000     0.743790000000    -0.0572353  
C105     C      0.157140000000     0.117540000000     0.746290000000     0.011996   
C106     C      0.169160000000     0.135440000000     0.714250000000    -0.0736742  
C107     C      0.181490000000     0.120900000000     0.679330000000     0.011021   
C108     C      0.181960000000     0.089000000000     0.676750000000    -0.0559735  
C109     C      0.206670000000     0.826640000000     0.885740000000    -0.0559426  
C110     C      0.215100000000     0.795800000000     0.882670000000     0.0219249  
C111     C      0.209730000000     0.780200000000     0.845240000000    -0.0555407  
C112     C      0.196560000000     0.795180000000     0.811550000000     0.0128594  
C113     C      0.188520000000     0.826100000000     0.814550000000    -0.0721022  
C114     C      0.193580000000     0.841620000000     0.852060000000     0.0126441  
C115     C      0.229780000000     0.780160000000     0.918200000000     0.0220546  
C116     C      0.251260000000     0.795500000000     0.942280000000    -0.0560334  
C117     C      0.265110000000     0.780910000000     0.975700000000     0.0127331  
C118     C      0.257880000000     0.750600000000     0.985750000000    -0.072719   
C119     C      0.236480000000     0.735180000000     0.961690000000     0.0128759  
C120     C      0.222560000000     0.749810000000     0.928290000000    -0.0559718  
C121     C      0.177910000000     0.969220000000     0.498130000000    -0.0550261  
C122     C      0.161760000000     0.984630000000     0.529210000000     0.020182   
C123     C      0.142990000000     0.967570000000     0.555440000000    -0.0551188  
C124     C      0.140770000000     0.935930000000     0.551100000000     0.0140964  
C125     C      0.156590000000     0.920700000000     0.519700000000    -0.0720552  
C126     C      0.175250000000     0.937640000000     0.493320000000     0.0131318  
C127     C      0.163910000000     0.018410000000     0.533390000000     0.020569   
C128     C      0.191220000000     0.033550000000     0.526540000000    -0.0580041  
C129     C      0.192800000000     0.065410000000     0.527690000000     0.0122032  
C130     C      0.167190000000     0.082820000000     0.536130000000    -0.0781645  
C131     C      0.140140000000     0.067740000000     0.544400000000     0.00960032 
C132     C      0.138480000000     0.035930000000     0.542900000000    -0.060222   
C133     C      0.228350000000     0.774380000000     0.347600000000    -0.0561003  
C134     C      0.213150000000     0.775940000000     0.309480000000     0.0222211  
C135     C      0.183630000000     0.786920000000     0.308910000000    -0.0564651  
C136     C      0.169630000000     0.796090000000     0.345650000000     0.0134926  
C137     C      0.184830000000     0.794390000000     0.383750000000    -0.0737049  
C138     C      0.214340000000     0.783470000000     0.384330000000     0.0137322  
C139     C      0.227900000000     0.765680000000     0.270600000000     0.0218495  
C140     C      0.257990000000     0.772890000000     0.262730000000    -0.0559756  
C141     C      0.272120000000     0.762390000000     0.226760000000     0.0128105  
C142     C      0.256470000000     0.744390000000     0.197940000000    -0.0725949  
C143     C      0.226290000000     0.737520000000     0.205510000000     0.0126011  
C144     C      0.212160000000     0.748070000000     0.241420000000    -0.0560866  
C145     C      0.071790000000     0.839430000000     0.598220000000    -0.0289122  
C146     C      0.045980000000     0.857740000000     0.595640000000     0.0115799  
C147     C      0.017790000000     0.843440000000     0.596000000000    -0.035456   
C148     C      0.015550000000     0.811680000000     0.598530000000    -0.0412763  
C149     C      0.041290000000     0.793840000000     0.601100000000     0.0175406  
C150     C      0.069370000000     0.807690000000     0.601000000000    -0.0321917  
C151     C      0.048410000000     0.891530000000     0.592740000000     0.0130351  
C152     C      0.070230000000     0.907390000000     0.615670000000    -0.0358556  
C153     C      0.072000000000     0.939180000000     0.613730000000    -0.0363946  
C154     C      0.052330000000     0.955530000000     0.588550000000     0.00462947 
C155     C      0.030800000000     0.940130000000     0.565290000000    -0.0370695  
C156     C      0.028800000000     0.908320000000     0.567270000000    -0.0387024  
C157     C      0.526770000000     0.352050000000     0.159080000000    -0.0558699  
C158     C      0.509980000000     0.332850000000     0.133020000000     0.0217915  
C159     C      0.525130000000     0.314090000000     0.104510000000    -0.055781   
C160     C      0.556290000000     0.314820000000     0.101780000000     0.0126287  
C161     C      0.572990000000     0.334270000000     0.127560000000    -0.0720439  
C162     C      0.557920000000     0.352710000000     0.156430000000     0.0124403  
C163     C      0.476780000000     0.333010000000     0.134920000000     0.0222203  
C164     C      0.461900000000     0.335200000000     0.173260000000    -0.0563491  
C165     C      0.430740000000     0.336790000000     0.174880000000     0.0135253  
C166     C      0.413760000000     0.336130000000     0.138220000000    -0.0732468  
C167     C      0.428540000000     0.333330000000     0.099940000000     0.0132753  
C168     C      0.459710000000     0.331840000000     0.098300000000    -0.0561988  
C169     C      0.956600000000     0.264370000000     0.694370000000    -0.0582943  
C170     C      0.972450000000     0.243400000000     0.718910000000     0.0201615  
C171     C      0.956510000000     0.221580000000     0.741940000000    -0.0577643  
C172     C      0.925390000000     0.220150000000     0.739480000000     0.0114004  
C173     C      0.909590000000     0.240390000000     0.713750000000    -0.074672   
C174     C      0.925450000000     0.262950000000     0.691940000000     0.0126761  
C175     C      0.005550000000     0.243780000000     0.719820000000     0.0193274  
C176     C      0.022030000000     0.245830000000     0.682770000000    -0.0576777  
C177     C      0.053250000000     0.245170000000     0.683590000000     0.00898632 
C178     C      0.068580000000     0.242880000000     0.721530000000    -0.0736606  
C179     C      0.052090000000     0.241180000000     0.758570000000     0.00980008 
C180     C      0.020900000000     0.241450000000     0.757700000000    -0.0572478  
C181     C      0.755500000000     0.301080000000     0.958220000000    -0.0560738  
C182     C      0.739450000000     0.282530000000     0.930480000000     0.0216794  
C183     C      0.710130000000     0.273860000000     0.940750000000    -0.0557622  
C184     C      0.696960000000     0.283990000000     0.977590000000     0.0124689  
C185     C      0.712880000000     0.302890000000     0.005020000000    -0.0719948  
C186     C      0.742390000000     0.311100000000     0.995140000000     0.0120783  
C187     C      0.752970000000     0.272860000000     0.890520000000     0.0222252  
C188     C      0.769170000000     0.293780000000     0.866290000000    -0.0562188  
C189     C      0.781320000000     0.284960000000     0.828190000000     0.013478   
C190     C      0.777630000000     0.254990000000     0.813580000000    -0.0733089  
C191     C      0.761660000000     0.233970000000     0.837940000000     0.0134606  
C192     C      0.749390000000     0.242840000000     0.875980000000    -0.0564467  
C193     C      0.959420000000     0.210280000000     0.488260000000    -0.0581155  
C194     C      0.976620000000     0.191160000000     0.513780000000     0.0198449  
C195     C      0.962420000000     0.167770000000     0.536120000000    -0.0580551  
C196     C      0.931560000000     0.163580000000     0.533050000000     0.012413   
C197     C      0.914270000000     0.182820000000     0.507730000000    -0.074913   
C198     C      0.928520000000     0.206220000000     0.485380000000     0.0123493  
C199     C      0.009440000000     0.194860000000     0.516140000000     0.0201017  
C200     C      0.026580000000     0.196290000000     0.479680000000    -0.0570644  
C201     C      0.057750000000     0.197100000000     0.481800000000     0.0127019  
C202     C      0.072330000000     0.196860000000     0.520440000000    -0.0740159  
C203     C      0.055110000000     0.196760000000     0.556930000000     0.0112222  
C204     C      0.023970000000     0.195610000000     0.554760000000    -0.0586118  
C205     C      0.731220000000     0.229390000000     0.352860000000    -0.0556301  
C206     C      0.748950000000     0.239790000000     0.319720000000     0.0219572  
C207     C      0.779810000000     0.233920000000     0.320420000000    -0.0560002  
C208     C      0.792740000000     0.218380000000     0.353780000000     0.0128847  
C209     C      0.775110000000     0.208540000000     0.387320000000    -0.0722094  
C210     C      0.744180000000     0.214000000000     0.386380000000     0.0129632  
C211     C      0.735400000000     0.257140000000     0.284860000000     0.0221836  
C212     C      0.708250000000     0.247670000000     0.267130000000    -0.056425   
C213     C      0.695540000000     0.264040000000     0.234320000000     0.013083   
C214     C      0.709590000000     0.290340000000     0.218720000000    -0.0733372  
C215     C      0.736660000000     0.299900000000     0.236570000000     0.0131949  
C216     C      0.749470000000     0.283430000000     0.269200000000    -0.0561533  
C217     C      0.947860000000     0.210810000000     0.621090000000    -0.0299908  
C218     C      0.930600000000     0.186520000000     0.636770000000     0.00491472 
C219     C      0.899890000000     0.185620000000     0.627220000000    -0.0260579  
C220     C      0.886810000000     0.208680000000     0.603360000000    -0.0331152  
C221     C      0.904190000000     0.232610000000     0.588170000000     0.0334487  
C222     C      0.934710000000     0.233580000000     0.596800000000    -0.0453997  
C223     C      0.944440000000     0.162540000000     0.663350000000     0.0109127  
C224     C      0.973940000000     0.152600000000     0.656130000000    -0.0391748  
C225     C      0.986990000000     0.130450000000     0.681540000000    -0.0397842  
C226     C      0.970870000000     0.117950000000     0.714470000000     0.006766   
C227     C      0.941640000000     0.127490000000     0.722010000000    -0.0373265  
C228     C      0.928410000000     0.149560000000     0.696640000000    -0.0410255  
C229     C      0.510940000000     0.739110000000     0.061770000000    -0.056001   
C230     C      0.492830000000     0.714620000000     0.048970000000     0.022114   
C231     C      0.506600000000     0.688330000000     0.032790000000    -0.0559511  
C232     C      0.537710000000     0.686260000000     0.030500000000     0.0130014  
C233     C      0.555780000000     0.710380000000     0.044470000000    -0.0727924  
C234     C      0.542070000000     0.737000000000     0.059600000000     0.0129655  
C235     C      0.459810000000     0.715860000000     0.054080000000     0.0218254  
C236     C      0.447090000000     0.728580000000     0.090090000000    -0.0556586  
C237     C      0.416170000000     0.728100000000     0.096140000000     0.012686   
C238     C      0.397260000000     0.714800000000     0.066400000000    -0.0723561  
C239     C      0.409860000000     0.702660000000     0.030020000000     0.0125233  
C240     C      0.440770000000     0.703230000000     0.023890000000    -0.0558622  
C241     C      0.687070000000     0.551530000000     0.048990000000    -0.0560817  
C242     C      0.674370000000     0.536880000000     0.083620000000     0.0218859  
C243     C      0.658610000000     0.554480000000     0.112780000000    -0.056148   
C244     C      0.655210000000     0.585890000000     0.107160000000     0.0128363  
C245     C      0.667570000000     0.600480000000     0.072310000000    -0.0725437  
C246     C      0.683770000000     0.583030000000     0.043450000000     0.0128323  
C247     C      0.676530000000     0.503230000000     0.088680000000     0.021907   
C248     C      0.672050000000     0.483800000000     0.054530000000    -0.0561764  
C249     C      0.672190000000     0.452140000000     0.059670000000     0.0128504  
C250     C      0.676900000000     0.439170000000     0.099040000000    -0.072782   
C251     C      0.682080000000     0.458540000000     0.133040000000     0.0128984  
C252     C      0.681840000000     0.490240000000     0.127930000000    -0.0561783  
C253     C      0.944760000000     0.847820000000     0.668760000000    -0.0570305  
C254     C      0.958070000000     0.862160000000     0.703180000000     0.0204844  
C255     C      0.939680000000     0.877340000000     0.731900000000    -0.0565528  
C256     C      0.908800000000     0.878510000000     0.726100000000     0.0115379  
C257     C      0.895540000000     0.864480000000     0.691500000000    -0.0743682  
C258     C      0.913810000000     0.849040000000     0.662910000000     0.010728   
C259     C      0.991090000000     0.862630000000     0.708100000000     0.019405   
C260     C      0.008410000000     0.836640000000     0.699390000000    -0.0570942  
C261     C      0.039610000000     0.837840000000     0.701850000000     0.0124291  
C262     C      0.054060000000     0.865100000000     0.713000000000    -0.0782826  
C263     C      0.036720000000     0.890820000000     0.722740000000     0.011165   
C264     C      0.005630000000     0.889560000000     0.720520000000    -0.0591122  
C265     C      0.807880000000     0.017100000000     0.617800000000    -0.0599458  
C266     C      0.792660000000     0.035080000000     0.647180000000     0.0211857  
C267     C      0.776810000000     0.020390000000     0.679160000000    -0.0578976  
C268     C      0.776720000000     0.988620000000     0.682310000000     0.0132486  
C269     C      0.792510000000     0.970690000000     0.653630000000    -0.0781867  
C270     C      0.807870000000     0.985220000000     0.621060000000     0.00891943 
C271     C      0.794770000000     0.068990000000     0.646560000000     0.0222341  
C272     C      0.822220000000     0.083490000000     0.638560000000    -0.0549845  
C273     C      0.825220000000     0.115040000000     0.643710000000     0.0186408  
C274     C      0.800850000000     0.132770000000     0.657010000000    -0.0691469  
C275     C      0.773020000000     0.118570000000     0.662750000000     0.0170831  
C276     C      0.770010000000     0.087050000000     0.657520000000    -0.054995   
C277     C      0.708970000000     0.746560000000     0.876570000000    -0.0557279  
C278     C      0.719040000000     0.776800000000     0.881020000000     0.022069   
C279     C      0.715810000000     0.791230000000     0.919750000000    -0.0559771  
C280     C      0.702840000000     0.775810000000     0.953200000000     0.0125691  
C281     C      0.692770000000     0.745600000000     0.948720000000    -0.0723607  
C282     C      0.695960000000     0.731140000000     0.910040000000     0.0126445  
C283     C      0.732910000000     0.793230000000     0.845460000000     0.0218453  
C284     C      0.753000000000     0.778200000000     0.818830000000    -0.0554057  
C285     C      0.766080000000     0.793660000000     0.785490000000     0.0124938  
C286     C      0.759360000000     0.824500000000     0.777950000000    -0.0712973  
C287     C      0.739300000000     0.839560000000     0.804530000000     0.0125575  
C288     C      0.726240000000     0.824110000000     0.837910000000    -0.0554324  
C289     C      0.934390000000     0.788940000000     0.466270000000    -0.0557946  
C290     C      0.949270000000     0.806860000000     0.495870000000     0.0185041  
C291     C      0.932470000000     0.822730000000     0.525730000000    -0.0563881  
C292     C      0.901270000000     0.821050000000     0.525510000000     0.00900276 
C293     C      0.886320000000     0.804050000000     0.494840000000    -0.0705925  
C294     C      0.903230000000     0.787710000000     0.465570000000     0.0109865  
C295     C      0.982200000000     0.809560000000     0.494760000000     0.0197209  
C296     C      0.000190000000     0.783360000000     0.492460000000    -0.0574876  
C297     C      0.031300000000     0.785950000000     0.491280000000     0.0118035  
C298     C      0.044970000000     0.814820000000     0.491950000000    -0.0734492  
C299     C      0.026890000000     0.841030000000     0.493300000000     0.0109401  
C300     C      0.995800000000     0.838420000000     0.495050000000    -0.0591258  
C301     C      0.779980000000     0.957000000000     0.520430000000    -0.0556607  
C302     C      0.791770000000     0.973460000000     0.486710000000     0.0205511  
C303     C      0.800150000000     0.957440000000     0.450700000000    -0.0571075  
C304     C      0.797690000000     0.925730000000     0.448910000000     0.0123913  
C305     C      0.786650000000     0.909250000000     0.482980000000    -0.0759924  
C306     C      0.777500000000     0.925210000000     0.518630000000     0.0122602  
C307     C      0.795930000000     0.007100000000     0.489070000000     0.0201933  
C308     C      0.774750000000     0.025810000000     0.508930000000    -0.0577368  
C309     C      0.778610000000     0.057480000000     0.510200000000     0.0110912  
C310     C      0.803640000000     0.071100000000     0.491460000000    -0.0746156  
C311     C      0.824980000000     0.052410000000     0.472140000000     0.0109253  
C312     C      0.821240000000     0.020810000000     0.471110000000    -0.0581806  
C313     C      0.751360000000     0.742470000000     0.306680000000    -0.0557064  
C314     C      0.728610000000     0.759360000000     0.287200000000     0.0218309  
C315     C      0.717870000000     0.785870000000     0.306750000000    -0.0558456  
C316     C      0.729510000000     0.795220000000     0.344900000000     0.0128568  
C317     C      0.752210000000     0.778320000000     0.364350000000    -0.0720453  
C318     C      0.763040000000     0.751850000000     0.344850000000     0.0126327  
C319     C      0.715930000000     0.749340000000     0.246800000000     0.0221264  
C320     C      0.734530000000     0.737790000000     0.215320000000    -0.056226   
C321     C      0.722490000000     0.728370000000     0.177360000000     0.0127999  
C322     C      0.691590000000     0.730330000000     0.170120000000    -0.0727301  
C323     C      0.673010000000     0.741930000000     0.201530000000     0.0131747  
C324     C      0.685030000000     0.751290000000     0.239440000000    -0.056205   
C325     C      0.949920000000     0.912500000000     0.604900000000    -0.0370551  
C326     C      0.919600000000     0.920950000000     0.602870000000     0.00909911 
C327     C      0.907960000000     0.940340000000     0.633820000000    -0.0363687  
C328     C      0.926280000000     0.951030000000     0.665800000000    -0.0367276  
C329     C      0.956310000000     0.942640000000     0.667260000000     0.00704813 
C330     C      0.968110000000     0.923400000000     0.636900000000    -0.0398098  
C331     C      0.900220000000     0.909740000000     0.568610000000     0.00471667 
C332     C      0.911330000000     0.907190000000     0.527820000000    -0.0348079  
C333     C      0.892770000000     0.897170000000     0.495660000000    -0.045866   
C334     C      0.863090000000     0.889490000000     0.503800000000     0.0297413  
C335     C      0.851880000000     0.891730000000     0.544110000000    -0.0361103  
C336     C      0.870270000000     0.901810000000     0.576320000000    -0.0304588  
Cd1      Cd     0.789540000000     0.809960000000     0.481870000000     0.507872   
Cd2      Cd     0.799330000000     0.872110000000     0.672200000000     0.504326   
Cd3      Cd     0.652400000000     0.698050000000     0.054340000000     0.507058   
Cd4      Cd     0.817950000000     0.169460000000     0.497150000000     0.505617   
Cd5      Cd     0.814120000000     0.228090000000     0.693360000000     0.50312    
Cd6      Cd     0.669800000000     0.340480000000     0.115120000000     0.507429   
Cd7      Cd     0.141840000000     0.823630000000     0.498910000000     0.505602   
Cd8      Cd     0.151180000000     0.874780000000     0.708060000000     0.503715   
Cd9      Cd     0.301680000000     0.705630000000     0.090190000000     0.508241   
Cd10     Cd     0.168190000000     0.182260000000     0.528650000000     0.505503   
Cd11     Cd     0.165500000000     0.234530000000     0.725510000000     0.50882    
Cd12     Cd     0.317060000000     0.348420000000     0.142450000000     0.507187   
H1       H      0.260030000000     0.242720000000     0.910210000000     0.0507358  
H2       H      0.236220000000     0.225720000000     0.846140000000     0.0478401  
H3       H      0.183940000000     0.308600000000     0.842930000000     0.0478593  
H4       H      0.207520000000     0.325410000000     0.907300000000     0.0507005  
H5       H      0.256930000000     0.342260000000     0.931930000000     0.0508372  
H6       H      0.280220000000     0.359520000000     0.996170000000     0.0473593  
H7       H      0.270780000000     0.269030000000     0.047880000000     0.0467077  
H8       H      0.247120000000     0.251850000000     0.983670000000     0.0503679  
H9       H      0.220100000000     0.312780000000     0.319440000000     0.0505449  
H10      H      0.243420000000     0.338690000000     0.260790000000     0.0471325  
H11      H      0.302770000000     0.261960000000     0.243670000000     0.0476082  
H12      H      0.279940000000     0.236350000000     0.302880000000     0.0506977  
H13      H      0.233800000000     0.211950000000     0.323900000000     0.0503057  
H14      H      0.211690000000     0.186360000000     0.383740000000     0.0475907  
H15      H      0.208540000000     0.272270000000     0.449400000000     0.0485368  
H16      H      0.231250000000     0.297720000000     0.390020000000     0.0510253  
H17      H      0.058730000000     0.113090000000     0.726180000000     0.0386401  
H18      H      0.061000000000     0.169190000000     0.721800000000     0.0488486  
H19      H      0.125320000000     0.163030000000     0.623680000000     0.0776638  
H20      H      0.123400000000     0.107000000000     0.626730000000     0.0472114  
H21      H      0.089640000000     0.064790000000     0.612290000000     0.0398058  
H22      H      0.088530000000     0.008820000000     0.616560000000     0.0376362  
H23      H      0.088000000000     0.013450000000     0.749450000000     0.0454939  
H24      H      0.089520000000     0.069610000000     0.746370000000     0.0406494  
H25      H      0.276030000000     0.540920000000     0.070990000000     0.0506038  
H26      H      0.275350000000     0.595770000000     0.057890000000     0.0478769  
H27      H      0.319740000000     0.611390000000     0.175090000000     0.0471208  
H28      H      0.319930000000     0.556640000000     0.188520000000     0.0503057  
H29      H      0.345260000000     0.511750000000     0.161210000000     0.0503669  
H30      H      0.349330000000     0.456620000000     0.169090000000     0.0471102  
H31      H      0.259220000000     0.446090000000     0.123190000000     0.0473962  
H32      H      0.254960000000     0.501380000000     0.115980000000     0.0504022  
H33      H      0.160080000000     0.034280000000     0.641560000000     0.0480064  
H34      H      0.157560000000     0.978600000000     0.640330000000     0.0394881  
H35      H      0.178120000000     0.975700000000     0.771020000000     0.0469247  
H36      H      0.181690000000     0.031090000000     0.772290000000     0.0497857  
H37      H      0.147790000000     0.072800000000     0.768850000000     0.0463412  
H38      H      0.147120000000     0.128040000000     0.773360000000     0.0449254  
H39      H      0.190740000000     0.134140000000     0.654000000000     0.0521059  
H40      H      0.191840000000     0.078410000000     0.649660000000     0.051281   
H41      H      0.216250000000     0.756540000000     0.841650000000     0.050861   
H42      H      0.193010000000     0.782620000000     0.783020000000     0.047996   
H43      H      0.187490000000     0.865420000000     0.855420000000     0.0475153  
H44      H      0.210020000000     0.839210000000     0.914300000000     0.0500124  
H45      H      0.257710000000     0.818710000000     0.935000000000     0.0505749  
H46      H      0.281610000000     0.793380000000     0.993520000000     0.0471511  
H47      H      0.230360000000     0.711830000000     0.968740000000     0.0478652  
H48      H      0.205860000000     0.737450000000     0.910710000000     0.0504033  
H49      H      0.130010000000     0.978610000000     0.579430000000     0.0431438  
H50      H      0.126280000000     0.923430000000     0.571910000000     0.0501814  
H51      H      0.187640000000     0.926550000000     0.468690000000     0.0472727  
H52      H      0.192070000000     0.981630000000     0.476730000000     0.0502952  
H53      H      0.211400000000     0.020800000000     0.520040000000     0.0506622  
H54      H      0.214030000000     0.076390000000     0.521590000000     0.0469017  
H55      H      0.119980000000     0.080580000000     0.550770000000     0.0383747  
H56      H      0.116990000000     0.025190000000     0.547850000000     0.0445222  
H57      H      0.171420000000     0.788710000000     0.279980000000     0.0501273  
H58      H      0.146900000000     0.804500000000     0.344170000000     0.0465661  
H59      H      0.226640000000     0.781860000000     0.413200000000     0.0482793  
H60      H      0.250960000000     0.765630000000     0.349180000000     0.0511473  
H61      H      0.270620000000     0.786750000000     0.284340000000     0.0507669  
H62      H      0.295380000000     0.768130000000     0.221750000000     0.0480516  
H63      H      0.213630000000     0.723650000000     0.183940000000     0.0470181  
H64      H      0.189060000000     0.741840000000     0.246770000000     0.0503093  
H65      H      0.997460000000     0.856760000000     0.594710000000     0.0349415  
H66      H      0.993830000000     0.800850000000     0.598660000000     0.0421011  
H67      H      0.089260000000     0.793750000000     0.602910000000     0.0650423  
H68      H      0.093840000000     0.849540000000     0.597500000000     0.0712657  
H69      H      0.085810000000     0.895350000000     0.635360000000     0.0592014  
H70      H      0.088800000000     0.951110000000     0.631570000000     0.0473681  
H71      H      0.015610000000     0.952890000000     0.545780000000     0.0415165  
H72      H      0.011970000000     0.896950000000     0.548760000000     0.0368051  
H73      H      0.512910000000     0.298730000000     0.084370000000     0.0503898  
H74      H      0.567280000000     0.300240000000     0.079330000000     0.0481333  
H75      H      0.570140000000     0.368030000000     0.176640000000     0.0471459  
H76      H      0.515830000000     0.367120000000     0.180960000000     0.0502812  
H77      H      0.474340000000     0.335680000000     0.202090000000     0.0504875  
H78      H      0.419980000000     0.338780000000     0.204880000000     0.0474375  
H79      H      0.416080000000     0.332850000000     0.071120000000     0.0471196  
H80      H      0.470440000000     0.330550000000     0.068220000000     0.0505592  
H81      H      0.968170000000     0.205000000000     0.760910000000     0.0477506  
H82      H      0.913800000000     0.202620000000     0.756870000000     0.0423527  
H83      H      0.913890000000     0.278980000000     0.672020000000     0.0469245  
H84      H      0.968310000000     0.281640000000     0.676670000000     0.0496548  
H85      H      0.010800000000     0.247400000000     0.653080000000     0.0443242  
H86      H      0.065350000000     0.246320000000     0.654510000000     0.0473442  
H87      H      0.063260000000     0.239260000000     0.788280000000     0.046397   
H88      H      0.008750000000     0.240030000000     0.786730000000     0.049357   
H89      H      0.697080000000     0.259830000000     0.919830000000     0.0509537  
H90      H      0.674170000000     0.277300000000     0.984320000000     0.0481049  
H91      H      0.755260000000     0.325590000000     0.015680000000     0.0472002  
H92      H      0.778260000000     0.307830000000     0.951400000000     0.0500256  
H93      H      0.772000000000     0.317180000000     0.876420000000     0.0508552  
H94      H      0.793480000000     0.301690000000     0.810110000000     0.0475308  
H95      H      0.758490000000     0.210680000000     0.827550000000     0.047254   
H96      H      0.737280000000     0.226120000000     0.894160000000     0.050372   
H97      H      0.975270000000     0.152430000000     0.555490000000     0.0463116  
H98      H      0.921260000000     0.145300000000     0.550580000000     0.0425137  
H99      H      0.915800000000     0.221440000000     0.465630000000     0.0471986  
H100     H      0.969870000000     0.228500000000     0.470770000000     0.049826   
H101     H      0.015900000000     0.195650000000     0.449520000000     0.0504785  
H102     H      0.070430000000     0.197210000000     0.453160000000     0.0461855  
H103     H      0.065680000000     0.196610000000     0.587190000000     0.0432596  
H104     H      0.011260000000     0.195020000000     0.583270000000     0.0418861  
H105     H      0.793990000000     0.241290000000     0.295090000000     0.0503934  
H106     H      0.816640000000     0.214500000000     0.353550000000     0.0477984  
H107     H      0.730010000000     0.206750000000     0.411790000000     0.0479911  
H108     H      0.707410000000     0.233780000000     0.353380000000     0.051149   
H109     H      0.697020000000     0.227370000000     0.278260000000     0.0505743  
H110     H      0.674670000000     0.256050000000     0.221200000000     0.0469726  
H111     H      0.748020000000     0.320090000000     0.225270000000     0.0476177  
H112     H      0.770220000000     0.291510000000     0.282550000000     0.0511364  
H113     H      0.886050000000     0.166950000000     0.637760000000     0.0554806  
H114     H      0.863200000000     0.207890000000     0.596300000000     0.073239   
H115     H      0.948120000000     0.252210000000     0.585040000000     0.0466815  
H116     H      0.971360000000     0.212650000000     0.628320000000     0.0359224  
H117     H      0.986890000000     0.161580000000     0.630600000000     0.0368129  
H118     H      0.009580000000     0.122870000000     0.675650000000     0.0417608  
H119     H      0.929270000000     0.117800000000     0.747670000000     0.0439124  
H120     H      0.905870000000     0.156870000000     0.703690000000     0.0513464  
H121     H      0.493400000000     0.668880000000     0.023130000000     0.0504298  
H122     H      0.547600000000     0.665390000000     0.018810000000     0.0473114  
H123     H      0.555390000000     0.756040000000     0.070440000000     0.0475314  
H124     H      0.501060000000     0.759880000000     0.073770000000     0.0503826  
H125     H      0.461080000000     0.738120000000     0.114250000000     0.0506008  
H126     H      0.407150000000     0.737580000000     0.124550000000     0.0480943  
H127     H      0.395870000000     0.692410000000     0.006390000000     0.0471935  
H128     H      0.449760000000     0.693660000000     0.995530000000     0.0501802  
H129     H      0.648220000000     0.543850000000     0.139490000000     0.0504618  
H130     H      0.642600000000     0.598680000000     0.129980000000     0.047203   
H131     H      0.693630000000     0.593630000000     0.016340000000     0.0474987  
H132     H      0.699590000000     0.538640000000     0.026190000000     0.0505076  
H133     H      0.667570000000     0.493070000000     0.023990000000     0.0506562  
H134     H      0.668130000000     0.437830000000     0.032830000000     0.0471252  
H135     H      0.685880000000     0.449250000000     0.163740000000     0.0476928  
H136     H      0.685720000000     0.504600000000     0.154760000000     0.0504919  
H137     H      0.949170000000     0.888370000000     0.758940000000     0.0484454  
H138     H      0.895330000000     0.890570000000     0.748710000000     0.0449408  
H139     H      0.904280000000     0.838240000000     0.635720000000     0.0434043  
H140     H      0.958290000000     0.836350000000     0.645710000000     0.0430014  
H141     H      0.997850000000     0.815400000000     0.690430000000     0.0488618  
H142     H      0.052390000000     0.817590000000     0.694380000000     0.0451205  
H143     H      0.047160000000     0.912200000000     0.731360000000     0.0426502  
H144     H      0.993060000000     0.910040000000     0.727380000000     0.0467603  
H145     H      0.765270000000     0.033470000000     0.702750000000     0.0503527  
H146     H      0.764720000000     0.978150000000     0.707810000000     0.0473815  
H147     H      0.820300000000     0.972010000000     0.598490000000     0.0382489  
H148     H      0.820040000000     0.027660000000     0.592530000000     0.049368   
H149     H      0.841800000000     0.070300000000     0.630300000000     0.0486796  
H150     H      0.846920000000     0.125330000000     0.638750000000     0.0429112  
H151     H      0.753730000000     0.131650000000     0.672490000000     0.0493887  
H152     H      0.748400000000     0.076710000000     0.663070000000     0.0506217  
H153     H      0.723680000000     0.814350000000     0.924420000000     0.050219   
H154     H      0.700790000000     0.787580000000     0.982630000000     0.0472571  
H155     H      0.688360000000     0.707910000000     0.905560000000     0.0478716  
H156     H      0.710780000000     0.734900000000     0.847040000000     0.0511055  
H157     H      0.758930000000     0.754550000000     0.824070000000     0.0508061  
H158     H      0.781500000000     0.781420000000     0.765630000000     0.0483248  
H159     H      0.733580000000     0.863290000000     0.799490000000     0.0483176  
H160     H      0.710580000000     0.836270000000     0.857490000000     0.0505688  
H161     H      0.943480000000     0.836470000000     0.549170000000     0.0420254  
H162     H      0.888880000000     0.833650000000     0.548750000000     0.049196   
H163     H      0.892380000000     0.774330000000     0.441640000000     0.0481788  
H164     H      0.946870000000     0.776590000000     0.442850000000     0.0503393  
H165     H      0.990190000000     0.760850000000     0.492260000000     0.0501288  
H166     H      0.044640000000     0.765340000000     0.490320000000     0.0471888  
H167     H      0.036770000000     0.863580000000     0.493630000000     0.0429525  
H168     H      0.982370000000     0.858970000000     0.496350000000     0.0432709  
H169     H      0.808650000000     0.969390000000     0.423760000000     0.0491797  
H170     H      0.804810000000     0.914100000000     0.420930000000     0.0453368  
H171     H      0.769020000000     0.913110000000     0.545490000000     0.0532935  
H172     H      0.773310000000     0.968550000000     0.548630000000     0.0510266  
H173     H      0.754920000000     0.016070000000     0.522890000000     0.0506049  
H174     H      0.761870000000     0.071290000000     0.525580000000     0.0471471  
H175     H      0.844710000000     0.062170000000     0.457880000000     0.0454353  
H176     H      0.838390000000     0.007100000000     0.456470000000     0.0476711  
H177     H      0.700680000000     0.799650000000     0.292320000000     0.0505496  
H178     H      0.720800000000     0.815810000000     0.359020000000     0.0481597  
H179     H      0.780510000000     0.738330000000     0.359120000000     0.0479226  
H180     H      0.759860000000     0.721730000000     0.292700000000     0.0503682  
H181     H      0.758470000000     0.736340000000     0.219810000000     0.0501777  
H182     H      0.737390000000     0.719570000000     0.153730000000     0.0467413  
H183     H      0.649090000000     0.743580000000     0.196990000000     0.0480011  
H184     H      0.670020000000     0.759660000000     0.263220000000     0.0507739  
H185     H      0.884860000000     0.947650000000     0.633020000000     0.0459565  
H186     H      0.917250000000     0.965960000000     0.689420000000     0.043863   
H187     H      0.991320000000     0.916740000000     0.638520000000     0.0442285  
H188     H      0.959440000000     0.897180000000     0.582130000000     0.0341995  
H189     H      0.934160000000     0.913400000000     0.520590000000     0.0373204  
H190     H      0.901350000000     0.895350000000     0.464370000000     0.047661   
H191     H      0.828980000000     0.885490000000     0.550500000000     0.0723951  
H192     H      0.861120000000     0.903130000000     0.607310000000     0.0617572  
O1       O      0.839720000000     0.792860000000     0.461360000000    -0.231617   
O2       O      0.754860000000     0.812010000000     0.422840000000    -0.235304   
O3       O      0.797010000000     0.860790000000     0.451730000000    -0.239553   
O4       O      0.783790000000     0.769160000000     0.534230000000    -0.222856   
O5       O      0.746320000000     0.799080000000     0.527250000000    -0.225365   
O6       O      0.776350000000     0.859880000000     0.511960000000    -0.236327   
O7       O      0.837330000000     0.818250000000     0.518370000000    -0.231481   
O8       O      0.785890000000     0.774610000000     0.422240000000    -0.231994   
O9       O      0.783230000000     0.924110000000     0.690690000000    -0.232956   
O10      O      0.791070000000     0.827700000000     0.717960000000    -0.236687   
O11      O      0.849970000000     0.853460000000     0.654970000000    -0.233892   
O12      O      0.796510000000     0.840960000000     0.608680000000    -0.217483   
O13      O      0.755370000000     0.861350000000     0.628670000000    -0.22968    
O14      O      0.846320000000     0.881610000000     0.709380000000    -0.242319   
O15      O      0.806680000000     0.920050000000     0.632790000000    -0.253377   
O16      O      0.767240000000     0.868440000000     0.734570000000    -0.23013    
O17      O      0.601550000000     0.683220000000     0.032490000000    -0.237592   
O18      O      0.674640000000     0.647970000000     0.035920000000    -0.231896   
O19      O      0.650890000000     0.721760000000     0.123220000000    -0.232217   
O20      O      0.669650000000     0.702220000000     0.981370000000    -0.233948   
O21      O      0.676120000000     0.741890000000     0.019370000000    -0.237573   
O22      O      0.694480000000     0.708230000000     0.101930000000    -0.2367     
O23      O      0.605350000000     0.727100000000     0.061580000000    -0.233192   
O24      O      0.646690000000     0.649060000000     0.090160000000    -0.237708   
O25      O      0.865660000000     0.194730000000     0.480860000000    -0.232145   
O26      O      0.807370000000     0.214990000000     0.539680000000    -0.226601   
O27      O      0.829690000000     0.117270000000     0.474550000000    -0.238646   
O28      O      0.774540000000     0.187570000000     0.456270000000    -0.236532   
O29      O      0.816830000000     0.188140000000     0.424950000000    -0.23346    
O30      O      0.790070000000     0.122000000000     0.511640000000    -0.232354   
O31      O      0.868000000000     0.158330000000     0.525460000000    -0.242196   
O32      O      0.795980000000     0.172000000000     0.567140000000    -0.224916   
O33      O      0.783940000000     0.181380000000     0.682350000000    -0.234771   
O34      O      0.773070000000     0.255690000000     0.658470000000    -0.225867   
O35      O      0.862380000000     0.216050000000     0.726040000000    -0.2409     
O36      O      0.788330000000     0.218690000000     0.759800000000    -0.234709   
O37      O      0.803050000000     0.264700000000     0.749340000000    -0.237313   
O38      O      0.862430000000     0.253870000000     0.683450000000    -0.232815   
O39      O      0.829830000000     0.178620000000     0.663720000000    -0.248271   
O40      O      0.815220000000     0.256330000000     0.627030000000    -0.225126   
O41      O      0.671290000000     0.309720000000     0.051130000000    -0.230386   
O42      O      0.707020000000     0.332440000000     0.170980000000    -0.233805   
O43      O      0.619950000000     0.320960000000     0.096370000000    -0.229292   
O44      O      0.668430000000     0.388120000000     0.075050000000    -0.239018   
O45      O      0.680110000000     0.393070000000     0.139420000000    -0.231691   
O46      O      0.621450000000     0.352610000000     0.147360000000    -0.237605   
O47      O      0.712510000000     0.331380000000     0.068620000000    -0.237519   
O48      O      0.673150000000     0.298050000000     0.165160000000    -0.240018   
O49      O      0.094840000000     0.794540000000     0.492180000000    -0.232745   
O50      O      0.139870000000     0.781390000000     0.549630000000    -0.227797   
O51      O      0.162950000000     0.873980000000     0.481860000000    -0.237133   
O52      O      0.143800000000     0.814630000000     0.423160000000    -0.23783    
O53      O      0.183130000000     0.802350000000     0.457380000000    -0.236825   
O54      O      0.137780000000     0.871370000000     0.538640000000    -0.233319   
O55      O      0.090550000000     0.843340000000     0.495730000000    -0.238723   
O56      O      0.176860000000     0.812010000000     0.555930000000    -0.225872   
O57      O      0.100120000000     0.891720000000     0.723250000000    -0.24658    
O58      O      0.169580000000     0.870500000000     0.779880000000    -0.231957   
O59      O      0.152250000000     0.925400000000     0.674600000000    -0.243531   
O60      O      0.195860000000     0.864120000000     0.665900000000    -0.227755   
O61      O      0.153700000000     0.855590000000     0.636310000000    -0.226279   
O62      O      0.168440000000     0.923400000000     0.737430000000    -0.230079   
O63      O      0.103610000000     0.845860000000     0.700550000000    -0.240025   
O64      O      0.169860000000     0.828910000000     0.744690000000    -0.235857   
O65      O      0.352590000000     0.724010000000     0.105850000000    -0.230834   
O66      O      0.310470000000     0.659570000000     0.131740000000    -0.239736   
O67      O      0.290950000000     0.749130000000     0.044320000000    -0.239425   
O68      O      0.298880000000     0.737730000000     0.153080000000    -0.230982   
O69      O      0.258440000000     0.714600000000     0.135570000000    -0.239265   
O70      O      0.267680000000     0.707540000000     0.029890000000    -0.231446   
O71      O      0.347630000000     0.698320000000     0.049420000000    -0.238848   
O72      O      0.287800000000     0.652340000000     0.073750000000    -0.231049   
O73      O      0.190440000000     0.130870000000     0.520130000000    -0.231437   
O74      O      0.209340000000     0.181620000000     0.579410000000    -0.230433   
O75      O      0.120780000000     0.188250000000     0.490970000000    -0.238085   
O76      O      0.187110000000     0.226520000000     0.489640000000    -0.237215   
O77      O      0.190250000000     0.183380000000     0.458280000000    -0.233246   
O78      O      0.119020000000     0.195960000000     0.556900000000    -0.234908   
O79      O      0.146400000000     0.132560000000     0.546520000000    -0.249125   
O80      O      0.175840000000     0.215890000000     0.588980000000    -0.217803   
O81      O      0.176940000000     0.186320000000     0.688380000000    -0.235532   
O82      O      0.201210000000     0.230780000000     0.783220000000    -0.235789   
O83      O      0.115870000000     0.241730000000     0.756400000000    -0.234382   
O84      O      0.207840000000     0.246650000000     0.679470000000    -0.225808   
O85      O      0.170230000000     0.276850000000     0.675490000000    -0.218947   
O86      O      0.116940000000     0.238540000000     0.689790000000    -0.23146    
O87      O      0.158910000000     0.182140000000     0.749890000000    -0.239204   
O88      O      0.173360000000     0.270730000000     0.783200000000    -0.234422   
O89      O      0.309620000000     0.305620000000     0.190980000000    -0.234981   
O90      O      0.300550000000     0.353350000000     0.070110000000    -0.23484    
O91      O      0.367210000000     0.344340000000     0.173490000000    -0.233753   
O92      O      0.332660000000     0.401060000000     0.157770000000    -0.236602   
O93      O      0.287440000000     0.395630000000     0.136530000000    -0.231747   
O94      O      0.364970000000     0.338150000000     0.107390000000    -0.237853   
O95      O      0.281450000000     0.344610000000     0.200880000000    -0.23755    
O96      O      0.293920000000     0.309190000000     0.097510000000    -0.236861   


