data_structure

_audit_creation_method RASPA-1.0
_audit_creation_date 2023-5-22
_audit_author_name 'Poobodin Mano'

_cell_length_a    47.2327
_cell_length_b    46.3087
_cell_length_c    41.8697
_cell_angle_alpha 90.0053
_cell_angle_beta  90.0018
_cell_angle_gamma 103.03
_cell_volume      89223

_symmetry_cell_setting          triclinic
_symmetry_space_group_name_Hall 'P 1'
_symmetry_space_group_name_H-M  'P 1'
_symmetry_Int_Tables_number     1

_symmetry_equiv_pos_as_xyz 'x,y,z'

loop_
_atom_site_label
_atom_site_type_symbol
_atom_site_fract_x
_atom_site_fract_y
_atom_site_fract_z
_atom_site_charge
C1       C      0.161060000000     0.353100000000     0.353240000000     0.285713   
C2       C      0.210270000000     0.324060000000     0.445190000000     0.287612   
C3       C      0.196070000000     0.414480000000     0.442100000000     0.288315   
C4       C      0.113420000000     0.318680000000     0.442690000000     0.288095   
C5       C      0.375030000000     0.143700000000     0.615090000000     0.287147   
C6       C      0.340440000000     0.194850000000     0.523840000000     0.289354   
C7       C      0.429090000000     0.183990000000     0.526190000000     0.287179   
C8       C      0.335340000000     0.097680000000     0.525760000000     0.287107   
C9       C      0.373350000000     0.128710000000     0.855140000000     0.289422   
C10      C      0.325340000000     0.163750000000     0.936350000000     0.291304   
C11      C      0.330520000000     0.066430000000     0.945670000000     0.28979    
C12      C      0.417600000000     0.148160000000     0.953220000000     0.285965   
C13      C      0.149340000000     0.328800000000     0.114200000000     0.286996   
C14      C      0.195950000000     0.291410000000     0.020070000000     0.288574   
C15      C      0.102800000000     0.288220000000     0.024760000000     0.286984   
C16      C      0.190750000000     0.381960000000     0.026040000000     0.287148   
C17      C      0.470510000000     0.207150000000     0.999150000000    -0.0564053  
C18      C      0.997160000000     0.206030000000     0.984940000000     0.0217508  
C19      C      0.997750000000     0.184250000000     0.961650000000    -0.0557549  
C20      C      0.472060000000     0.164640000000     0.952060000000     0.0116152  
C21      C      0.445310000000     0.166190000000     0.965830000000    -0.0710874  
C22      C      0.444920000000     0.187360000000     0.989840000000     0.0119668  
C23      C      0.024260000000     0.227460000000     0.994500000000     0.0208834  
C24      C      0.024940000000     0.257890000000     0.997640000000    -0.0560561  
C25      C      0.050510000000     0.277920000000     0.006980000000     0.012096   
C26      C      0.075730000000     0.267790000000     0.013770000000    -0.0719662  
C27      C      0.074980000000     0.237380000000     0.010520000000     0.01212    
C28      C      0.049620000000     0.217500000000     0.000840000000    -0.055616   
C29      C      0.257440000000     0.444600000000     0.017640000000    -0.0555539  
C30      C      0.249540000000     0.461610000000     0.992810000000     0.0210855  
C31      C      0.221500000000     0.452670000000     0.979520000000    -0.0553462  
C32      C      0.202040000000     0.427120000000     0.990570000000     0.0112029  
C33      C      0.210200000000     0.410010000000     0.015140000000    -0.0712347  
C34      C      0.238050000000     0.419210000000     0.028670000000     0.0115624  
C35      C      0.270710000000     0.988280000000     0.980660000000     0.021249   
C36      C      0.289370000000     0.007290000000     0.001780000000    -0.0550882  
C37      C      0.309360000000     0.032210000000     0.990380000000     0.0113788  
C38      C      0.311110000000     0.038790000000     0.957600000000    -0.0726643  
C39      C      0.292700000000     0.019680000000     0.936430000000     0.0125707  
C40      C      0.272780000000     0.994720000000     0.947800000000    -0.0559143  
C41      C      0.230770000000     0.247730000000     0.961580000000    -0.0568222  
C42      C      0.251730000000     0.239080000000     0.980840000000     0.0212355  
C43      C      0.254370000000     0.247920000000     0.013000000000    -0.0563435  
C44      C      0.236250000000     0.264960000000     0.025750000000     0.0130036  
C45      C      0.215320000000     0.273700000000     0.006490000000    -0.0730115  
C46      C      0.212820000000     0.265050000000     0.974250000000     0.0124792  
C47      C      0.270720000000     0.220640000000     0.967640000000     0.0222455  
C48      C      0.258960000000     0.195150000000     0.949650000000    -0.0572999  
C49      C      0.276760000000     0.176820000000     0.938890000000     0.0136779  
C50      C      0.306650000000     0.183880000000     0.945700000000    -0.0749609  
C51      C      0.318500000000     0.209860000000     0.962880000000     0.0139898  
C52      C      0.300680000000     0.227990000000     0.973860000000    -0.0576499  
C53      C      0.357330000000     0.148470000000     0.702580000000    -0.0561666  
C54      C      0.378390000000     0.135880000000     0.717370000000     0.0216488  
C55      C      0.397910000000     0.124780000000     0.698080000000    -0.0559907  
C56      C      0.396730000000     0.126860000000     0.664720000000     0.0121235  
C57      C      0.376010000000     0.140090000000     0.650130000000    -0.0723456  
C58      C      0.356220000000     0.150640000000     0.669440000000     0.0126795  
C59      C      0.379710000000     0.134670000000     0.752810000000     0.0219661  
C60      C      0.375100000000     0.158640000000     0.771120000000    -0.0566035  
C61      C      0.373750000000     0.156860000000     0.804340000000     0.0131525  
C62      C      0.377250000000     0.131160000000     0.820150000000    -0.0732818  
C63      C      0.383120000000     0.107610000000     0.802060000000     0.0130649  
C64      C      0.384290000000     0.109320000000     0.768660000000    -0.0562725  
C65      C      0.131140000000     0.354590000000     0.269180000000    -0.0558276  
C66      C      0.151630000000     0.343550000000     0.251300000000     0.0215545  
C67      C      0.175590000000     0.336890000000     0.267180000000    -0.0560147  
C68      C      0.178640000000     0.340380000000     0.300140000000     0.0123934  
C69      C      0.157940000000     0.350840000000     0.318130000000    -0.0715129  
C70      C      0.134280000000     0.358220000000     0.302330000000     0.0117547  
C71      C      0.148350000000     0.338740000000     0.216260000000     0.0217667  
C72      C      0.155520000000     0.313720000000     0.202240000000    -0.0563004  
C73      C      0.155080000000     0.310220000000     0.169170000000     0.0127742  
C74      C      0.147180000000     0.331490000000     0.149240000000    -0.0726714  
C75      C      0.138740000000     0.355870000000     0.163170000000     0.0123166  
C76      C      0.139380000000     0.359500000000     0.196400000000    -0.0560642  
C77      C      0.494860000000     0.247760000000     0.517850000000    -0.0559392  
C78      C      0.007960000000     0.240320000000     0.489840000000     0.0207716  
C79      C      0.495490000000     0.213370000000     0.474480000000    -0.0557167  
C80      C      0.470250000000     0.194620000000     0.486590000000     0.011768   
C81      C      0.456960000000     0.202400000000     0.514320000000    -0.0718693  
C82      C      0.469710000000     0.229070000000     0.529920000000     0.0119121  
C83      C      0.034620000000     0.260550000000     0.476920000000     0.0217634  
C84      C      0.037670000000     0.291530000000     0.477280000000    -0.0559311  
C85      C      0.063080000000     0.310510000000     0.465920000000     0.0120151  
C86      C      0.086020000000     0.298940000000     0.453980000000    -0.0720119  
C87      C      0.082840000000     0.267990000000     0.453330000000     0.0121804  
C88      C      0.057490000000     0.249050000000     0.464630000000    -0.0562451  
C89      C      0.265820000000     0.039810000000     0.511250000000    -0.0560288  
C90      C      0.275020000000     0.519940000000     0.490470000000     0.0213628  
C91      C      0.304610000000     0.025490000000     0.481910000000    -0.0556179  
C92      C      0.324430000000     0.050440000000     0.493660000000     0.0117044  
C93      C      0.315060000000     0.070430000000     0.514150000000    -0.0716267  
C94      C      0.285550000000     0.064720000000     0.522890000000     0.0118783  
C95      C      0.253770000000     0.493660000000     0.477720000000     0.0215565  
C96      C      0.231970000000     0.476960000000     0.497460000000    -0.0559292  
C97      C      0.212490000000     0.451840000000     0.485650000000     0.0121396  
C98      C      0.214330000000     0.442860000000     0.453800000000    -0.0727567  
C99      C      0.235630000000     0.459990000000     0.433850000000     0.0122339  
C100     C      0.255110000000     0.485040000000     0.445660000000    -0.0561062  
C101     C      0.295850000000     0.232510000000     0.469720000000    -0.0567845  
C102     C      0.289060000000     0.254110000000     0.490110000000     0.0220633  
C103     C      0.300120000000     0.256620000000     0.521410000000    -0.0568589  
C104     C      0.317090000000     0.237560000000     0.532270000000     0.0135517  
C105     C      0.323510000000     0.215740000000     0.511990000000    -0.0742075  
C106     C      0.312990000000     0.213590000000     0.480510000000     0.0133232  
C107     C      0.269780000000     0.273290000000     0.479030000000     0.021827   
C108     C      0.271890000000     0.284380000000     0.447660000000    -0.0566182  
C109     C      0.252750000000     0.301170000000     0.436770000000     0.0130512  
C110     C      0.231250000000     0.307400000000     0.457100000000    -0.0735642  
C111     C      0.229500000000     0.296910000000     0.488660000000     0.0130613  
C112     C      0.248500000000     0.279930000000     0.499480000000    -0.0565506  
C113     C      0.161060000000     0.853100000000     0.353240000000     0.285834   
C114     C      0.210270000000     0.824070000000     0.445190000000     0.287708   
C115     C      0.196080000000     0.914480000000     0.442100000000     0.288214   
C116     C      0.113420000000     0.818690000000     0.442690000000     0.288284   
C117     C      0.375030000000     0.643700000000     0.615090000000     0.287153   
C118     C      0.340440000000     0.694850000000     0.523840000000     0.289274   
C119     C      0.429090000000     0.683990000000     0.526190000000     0.287183   
C120     C      0.335340000000     0.597680000000     0.525760000000     0.287097   
C121     C      0.373350000000     0.628710000000     0.855140000000     0.289412   
C122     C      0.325340000000     0.663750000000     0.936350000000     0.291312   
C123     C      0.330520000000     0.566430000000     0.945670000000     0.289778   
C124     C      0.417600000000     0.648160000000     0.953220000000     0.285902   
C125     C      0.149340000000     0.828800000000     0.114200000000     0.287003   
C126     C      0.195950000000     0.791410000000     0.020070000000     0.28857    
C127     C      0.102800000000     0.788220000000     0.024760000000     0.286987   
C128     C      0.190750000000     0.881960000000     0.026040000000     0.286995   
C129     C      0.470510000000     0.707150000000     0.999150000000    -0.0563752  
C130     C      0.997160000000     0.706030000000     0.984940000000     0.0217389  
C131     C      0.997750000000     0.684250000000     0.961650000000    -0.05574    
C132     C      0.472060000000     0.664640000000     0.952060000000     0.0115659  
C133     C      0.445320000000     0.666190000000     0.965830000000    -0.0709968  
C134     C      0.444920000000     0.687360000000     0.989840000000     0.0119062  
C135     C      0.024260000000     0.727460000000     0.994500000000     0.0208903  
C136     C      0.024940000000     0.757890000000     0.997640000000    -0.0560616  
C137     C      0.050510000000     0.777920000000     0.006980000000     0.0121007  
C138     C      0.075730000000     0.767790000000     0.013770000000    -0.0719723  
C139     C      0.074980000000     0.737380000000     0.010520000000     0.0121317  
C140     C      0.049620000000     0.717500000000     0.000840000000    -0.0556345  
C141     C      0.257440000000     0.944600000000     0.017630000000    -0.055484   
C142     C      0.249540000000     0.961620000000     0.992810000000     0.0210199  
C143     C      0.221490000000     0.952670000000     0.979520000000    -0.0552975  
C144     C      0.202030000000     0.927120000000     0.990570000000     0.0111167  
C145     C      0.210200000000     0.910010000000     0.015140000000    -0.0711452  
C146     C      0.238050000000     0.919220000000     0.028670000000     0.0114975  
C147     C      0.270710000000     0.488280000000     0.980660000000     0.0212232  
C148     C      0.289370000000     0.507300000000     0.001780000000    -0.0550804  
C149     C      0.309360000000     0.532210000000     0.990380000000     0.0113714  
C150     C      0.311110000000     0.538790000000     0.957600000000    -0.0726443  
C151     C      0.292700000000     0.519670000000     0.936430000000     0.012512   
C152     C      0.272780000000     0.494720000000     0.947810000000    -0.055842   
C153     C      0.230770000000     0.747730000000     0.961580000000    -0.0567897  
C154     C      0.251730000000     0.739070000000     0.980840000000     0.0211936  
C155     C      0.254370000000     0.747920000000     0.013000000000    -0.0563162  
C156     C      0.236250000000     0.764960000000     0.025750000000     0.0129892  
C157     C      0.215320000000     0.773700000000     0.006490000000    -0.0729982  
C158     C      0.212820000000     0.765050000000     0.974250000000     0.0124596  
C159     C      0.270720000000     0.720640000000     0.967640000000     0.0222756  
C160     C      0.258960000000     0.695150000000     0.949650000000    -0.0573148  
C161     C      0.276760000000     0.676820000000     0.938890000000     0.0136885  
C162     C      0.306650000000     0.683880000000     0.945700000000    -0.0749747  
C163     C      0.318500000000     0.709860000000     0.962880000000     0.0140115  
C164     C      0.300680000000     0.727990000000     0.973860000000    -0.0576949  
C165     C      0.357320000000     0.648470000000     0.702580000000    -0.0562437  
C166     C      0.378390000000     0.635880000000     0.717370000000     0.021669   
C167     C      0.397910000000     0.624780000000     0.698080000000    -0.0559922  
C168     C      0.396730000000     0.626860000000     0.664720000000     0.0121032  
C169     C      0.376010000000     0.640090000000     0.650130000000    -0.0723659  
C170     C      0.356220000000     0.650640000000     0.669440000000     0.0127506  
C171     C      0.379710000000     0.634670000000     0.752810000000     0.0219336  
C172     C      0.375100000000     0.658640000000     0.771120000000    -0.0565722  
C173     C      0.373740000000     0.656860000000     0.804340000000     0.0131091  
C174     C      0.377250000000     0.631160000000     0.820150000000    -0.0732543  
C175     C      0.383120000000     0.607610000000     0.802060000000     0.013038   
C176     C      0.384290000000     0.609320000000     0.768660000000    -0.0562262  
C177     C      0.131140000000     0.854590000000     0.269180000000    -0.0558424  
C178     C      0.151630000000     0.843550000000     0.251300000000     0.0215703  
C179     C      0.175590000000     0.836900000000     0.267180000000    -0.0560245  
C180     C      0.178640000000     0.840380000000     0.300140000000     0.0124117  
C181     C      0.157940000000     0.850840000000     0.318130000000    -0.0715622  
C182     C      0.134280000000     0.858220000000     0.302330000000     0.0117799  
C183     C      0.148350000000     0.838740000000     0.216260000000     0.0217621  
C184     C      0.155520000000     0.813720000000     0.202240000000    -0.05631    
C185     C      0.155080000000     0.810220000000     0.169170000000     0.0128045  
C186     C      0.147180000000     0.831480000000     0.149240000000    -0.0726814  
C187     C      0.138740000000     0.855870000000     0.163170000000     0.012292   
C188     C      0.139380000000     0.859500000000     0.196400000000    -0.0560535  
C189     C      0.494860000000     0.747770000000     0.517850000000    -0.0559942  
C190     C      0.007960000000     0.740320000000     0.489840000000     0.0207753  
C191     C      0.495490000000     0.713370000000     0.474480000000    -0.0557267  
C192     C      0.470250000000     0.694620000000     0.486590000000     0.0117754  
C193     C      0.456960000000     0.702400000000     0.514320000000    -0.0718805  
C194     C      0.469710000000     0.729070000000     0.529920000000     0.0119318  
C195     C      0.034620000000     0.760550000000     0.476920000000     0.0217778  
C196     C      0.037670000000     0.791530000000     0.477280000000    -0.05596    
C197     C      0.063080000000     0.810510000000     0.465920000000     0.0120723  
C198     C      0.086020000000     0.798940000000     0.453980000000    -0.0720677  
C199     C      0.082840000000     0.767990000000     0.453330000000     0.0122135  
C200     C      0.057490000000     0.749050000000     0.464630000000    -0.056265   
C201     C      0.265820000000     0.539810000000     0.511250000000    -0.0559879  
C202     C      0.275020000000     0.019940000000     0.490480000000     0.0214236  
C203     C      0.304610000000     0.525490000000     0.481910000000    -0.0555938  
C204     C      0.324430000000     0.550440000000     0.493660000000     0.0116847  
C205     C      0.315060000000     0.570430000000     0.514150000000    -0.0716058  
C206     C      0.285550000000     0.564720000000     0.522890000000     0.011835   
C207     C      0.253770000000     0.993670000000     0.477720000000     0.0214855  
C208     C      0.231970000000     0.976960000000     0.497460000000    -0.0558854  
C209     C      0.212490000000     0.951840000000     0.485650000000     0.0121014  
C210     C      0.214330000000     0.942870000000     0.453800000000    -0.072696   
C211     C      0.235630000000     0.959990000000     0.433850000000     0.0121924  
C212     C      0.255110000000     0.985040000000     0.445660000000    -0.0560609  
C213     C      0.295850000000     0.732510000000     0.469720000000    -0.0567497  
C214     C      0.289060000000     0.754110000000     0.490110000000     0.0220261  
C215     C      0.300120000000     0.756620000000     0.521410000000    -0.0568349  
C216     C      0.317090000000     0.737560000000     0.532270000000     0.0135216  
C217     C      0.323510000000     0.715750000000     0.511990000000    -0.0741272  
C218     C      0.312990000000     0.713590000000     0.480510000000     0.0132703  
C219     C      0.269780000000     0.773300000000     0.479030000000     0.0219034  
C220     C      0.271900000000     0.784380000000     0.447660000000    -0.0567215  
C221     C      0.252750000000     0.801170000000     0.436770000000     0.0130692  
C222     C      0.231250000000     0.807400000000     0.457100000000    -0.0735504  
C223     C      0.229500000000     0.796910000000     0.488660000000     0.0130711  
C224     C      0.248500000000     0.779930000000     0.499480000000    -0.056592   
C225     C      0.661060000000     0.353100000000     0.353240000000     0.285713   
C226     C      0.710270000000     0.324060000000     0.445190000000     0.287612   
C227     C      0.696070000000     0.414480000000     0.442100000000     0.288315   
C228     C      0.613420000000     0.318680000000     0.442690000000     0.288081   
C229     C      0.875030000000     0.143700000000     0.615090000000     0.287175   
C230     C      0.840440000000     0.194850000000     0.523840000000     0.289346   
C231     C      0.929090000000     0.183990000000     0.526190000000     0.287272   
C232     C      0.835340000000     0.097680000000     0.525760000000     0.287098   
C233     C      0.873350000000     0.128710000000     0.855140000000     0.289414   
C234     C      0.825340000000     0.163750000000     0.936350000000     0.291307   
C235     C      0.830520000000     0.066430000000     0.945670000000     0.289786   
C236     C      0.917600000000     0.148160000000     0.953220000000     0.285959   
C237     C      0.649340000000     0.328800000000     0.114200000000     0.286986   
C238     C      0.695960000000     0.291410000000     0.020070000000     0.288605   
C239     C      0.602800000000     0.288220000000     0.024760000000     0.286994   
C240     C      0.690750000000     0.381960000000     0.026040000000     0.287138   
C241     C      0.970510000000     0.207150000000     0.999150000000    -0.0564212  
C242     C      0.497160000000     0.206030000000     0.984940000000     0.0216034  
C243     C      0.497750000000     0.184250000000     0.961650000000    -0.0559481  
C244     C      0.972060000000     0.164640000000     0.952060000000     0.0115649  
C245     C      0.945310000000     0.166190000000     0.965830000000    -0.0710547  
C246     C      0.944920000000     0.187360000000     0.989840000000     0.0119821  
C247     C      0.524260000000     0.227460000000     0.994500000000     0.021079   
C248     C      0.524940000000     0.257890000000     0.997640000000    -0.0561054  
C249     C      0.550510000000     0.277920000000     0.006980000000     0.0121429  
C250     C      0.575730000000     0.267790000000     0.013770000000    -0.0719872  
C251     C      0.574980000000     0.237380000000     0.010520000000     0.0121759  
C252     C      0.549620000000     0.217500000000     0.000840000000    -0.0556945  
C253     C      0.757440000000     0.444600000000     0.017640000000    -0.0555366  
C254     C      0.749540000000     0.461610000000     0.992810000000     0.0210659  
C255     C      0.721490000000     0.452670000000     0.979520000000    -0.0553257  
C256     C      0.702030000000     0.427120000000     0.990570000000     0.0111554  
C257     C      0.710200000000     0.410010000000     0.015140000000    -0.0712003  
C258     C      0.738050000000     0.419210000000     0.028670000000     0.0115486  
C259     C      0.770710000000     0.988280000000     0.980660000000     0.0212447  
C260     C      0.789370000000     0.007290000000     0.001780000000    -0.0550642  
C261     C      0.809370000000     0.032210000000     0.990380000000     0.0113464  
C262     C      0.811110000000     0.038790000000     0.957600000000    -0.0726408  
C263     C      0.792700000000     0.019680000000     0.936430000000     0.0125649  
C264     C      0.772780000000     0.994720000000     0.947800000000    -0.0559051  
C265     C      0.730770000000     0.247730000000     0.961580000000    -0.0568442  
C266     C      0.751730000000     0.239080000000     0.980840000000     0.021262   
C267     C      0.754370000000     0.247920000000     0.013000000000    -0.056372   
C268     C      0.736250000000     0.264960000000     0.025750000000     0.0130556  
C269     C      0.715320000000     0.273700000000     0.006490000000    -0.0731089  
C270     C      0.712820000000     0.265050000000     0.974250000000     0.0125344  
C271     C      0.770720000000     0.220640000000     0.967640000000     0.0222407  
C272     C      0.758960000000     0.195150000000     0.949650000000    -0.057293   
C273     C      0.776760000000     0.176820000000     0.938890000000     0.0136781  
C274     C      0.806650000000     0.183880000000     0.945700000000    -0.0749574  
C275     C      0.818500000000     0.209860000000     0.962880000000     0.0139911  
C276     C      0.800680000000     0.227990000000     0.973860000000    -0.0576429  
C277     C      0.857330000000     0.148470000000     0.702580000000    -0.0562358  
C278     C      0.878380000000     0.135880000000     0.717370000000     0.0217012  
C279     C      0.897910000000     0.124780000000     0.698080000000    -0.0560408  
C280     C      0.896720000000     0.126860000000     0.664720000000     0.012222   
C281     C      0.876010000000     0.140090000000     0.650130000000    -0.0724164  
C282     C      0.856220000000     0.150640000000     0.669450000000     0.0127786  
C283     C      0.879720000000     0.134670000000     0.752810000000     0.0219446  
C284     C      0.875100000000     0.158640000000     0.771120000000    -0.0565657  
C285     C      0.873740000000     0.156860000000     0.804340000000     0.013116   
C286     C      0.877250000000     0.131160000000     0.820150000000    -0.0732501  
C287     C      0.883120000000     0.107610000000     0.802060000000     0.0130566  
C288     C      0.884290000000     0.109320000000     0.768660000000    -0.0562535  
C289     C      0.631140000000     0.354590000000     0.269180000000    -0.0558245  
C290     C      0.651630000000     0.343550000000     0.251300000000     0.0215618  
C291     C      0.675590000000     0.336890000000     0.267180000000    -0.0560138  
C292     C      0.678640000000     0.340380000000     0.300140000000     0.0123964  
C293     C      0.657940000000     0.350840000000     0.318130000000    -0.0715087  
C294     C      0.634280000000     0.358220000000     0.302330000000     0.0117594  
C295     C      0.648350000000     0.338740000000     0.216260000000     0.0217613  
C296     C      0.655520000000     0.313720000000     0.202240000000    -0.0562705  
C297     C      0.655080000000     0.310220000000     0.169160000000     0.0127366  
C298     C      0.647170000000     0.331490000000     0.149240000000    -0.0726481  
C299     C      0.638740000000     0.355870000000     0.163170000000     0.0123268  
C300     C      0.639380000000     0.359500000000     0.196400000000    -0.0560579  
C301     C      0.994860000000     0.247760000000     0.517850000000    -0.0552832  
C302     C      0.507960000000     0.240320000000     0.489840000000     0.0214344  
C303     C      0.995490000000     0.213370000000     0.474480000000    -0.0550664  
C304     C      0.970250000000     0.194620000000     0.486590000000     0.0115009  
C305     C      0.956960000000     0.202400000000     0.514320000000    -0.071692   
C306     C      0.969710000000     0.229070000000     0.529920000000     0.0116377  
C307     C      0.534620000000     0.260550000000     0.476920000000     0.0215403  
C308     C      0.537670000000     0.291530000000     0.477280000000    -0.0558064  
C309     C      0.563080000000     0.310510000000     0.465920000000     0.0119657  
C310     C      0.586020000000     0.298940000000     0.453980000000    -0.071961   
C311     C      0.582840000000     0.267990000000     0.453330000000     0.0121288  
C312     C      0.557490000000     0.249050000000     0.464630000000    -0.0561217  
C313     C      0.765820000000     0.039810000000     0.511250000000    -0.056008   
C314     C      0.775020000000     0.519940000000     0.490470000000     0.0213677  
C315     C      0.804610000000     0.025490000000     0.481910000000    -0.055608   
C316     C      0.824430000000     0.050440000000     0.493660000000     0.0117001  
C317     C      0.815060000000     0.070430000000     0.514150000000    -0.0716088  
C318     C      0.785550000000     0.064720000000     0.522890000000     0.0118469  
C319     C      0.753770000000     0.493660000000     0.477720000000     0.0215563  
C320     C      0.731970000000     0.476960000000     0.497460000000    -0.055915   
C321     C      0.712490000000     0.451840000000     0.485650000000     0.0121348  
C322     C      0.714330000000     0.442860000000     0.453800000000    -0.0727494  
C323     C      0.735630000000     0.459990000000     0.433850000000     0.0122342  
C324     C      0.755110000000     0.485040000000     0.445660000000    -0.0561016  
C325     C      0.795850000000     0.232510000000     0.469720000000    -0.0567602  
C326     C      0.789060000000     0.254110000000     0.490110000000     0.0220572  
C327     C      0.800120000000     0.256620000000     0.521410000000    -0.0568479  
C328     C      0.817090000000     0.237560000000     0.532270000000     0.0135473  
C329     C      0.823510000000     0.215740000000     0.511990000000    -0.0741875  
C330     C      0.813000000000     0.213590000000     0.480510000000     0.0132992  
C331     C      0.769780000000     0.273290000000     0.479030000000     0.0218338  
C332     C      0.771890000000     0.284380000000     0.447660000000    -0.0566172  
C333     C      0.752750000000     0.301170000000     0.436770000000     0.0130547  
C334     C      0.731250000000     0.307400000000     0.457100000000    -0.0735616  
C335     C      0.729500000000     0.296910000000     0.488660000000     0.0130644  
C336     C      0.748500000000     0.279930000000     0.499480000000    -0.0565497  
C337     C      0.661060000000     0.853100000000     0.353240000000     0.285849   
C338     C      0.710270000000     0.824070000000     0.445190000000     0.287705   
C339     C      0.696080000000     0.914480000000     0.442100000000     0.288215   
C340     C      0.613420000000     0.818690000000     0.442690000000     0.28827    
C341     C      0.875030000000     0.643700000000     0.615090000000     0.287171   
C342     C      0.840440000000     0.694850000000     0.523840000000     0.28927    
C343     C      0.929090000000     0.683990000000     0.526190000000     0.287105   
C344     C      0.835340000000     0.597680000000     0.525760000000     0.287097   
C345     C      0.873350000000     0.628710000000     0.855140000000     0.289413   
C346     C      0.825340000000     0.663750000000     0.936350000000     0.291311   
C347     C      0.830520000000     0.566430000000     0.945670000000     0.289773   
C348     C      0.917600000000     0.648160000000     0.953220000000     0.285956   
C349     C      0.649340000000     0.828800000000     0.114200000000     0.286998   
C350     C      0.695960000000     0.791410000000     0.020070000000     0.288464   
C351     C      0.602800000000     0.788220000000     0.024760000000     0.286997   
C352     C      0.690750000000     0.881960000000     0.026040000000     0.286963   
C353     C      0.970510000000     0.707150000000     0.999150000000    -0.056415   
C354     C      0.497160000000     0.706030000000     0.984940000000     0.0215824  
C355     C      0.497750000000     0.684250000000     0.961650000000    -0.0559218  
C356     C      0.972060000000     0.664640000000     0.952060000000     0.011531   
C357     C      0.945310000000     0.666190000000     0.965830000000    -0.0710419  
C358     C      0.944920000000     0.687360000000     0.989840000000     0.0119726  
C359     C      0.524260000000     0.727460000000     0.994500000000     0.0210855  
C360     C      0.524940000000     0.757890000000     0.997640000000    -0.0561101  
C361     C      0.550510000000     0.777920000000     0.006980000000     0.0121455  
C362     C      0.575730000000     0.767790000000     0.013770000000    -0.0719892  
C363     C      0.574980000000     0.737380000000     0.010520000000     0.0121771  
C364     C      0.549620000000     0.717500000000     0.000840000000    -0.0556965  
C365     C      0.757440000000     0.944600000000     0.017630000000    -0.0554839  
C366     C      0.749540000000     0.961620000000     0.992810000000     0.0210208  
C367     C      0.721490000000     0.952670000000     0.979520000000    -0.0552795  
C368     C      0.702030000000     0.927120000000     0.990570000000     0.0110821  
C369     C      0.710210000000     0.910010000000     0.015140000000    -0.0711013  
C370     C      0.738050000000     0.919220000000     0.028670000000     0.0115041  
C371     C      0.770710000000     0.488280000000     0.980660000000     0.021227   
C372     C      0.789370000000     0.507300000000     0.001780000000    -0.0550598  
C373     C      0.809370000000     0.532210000000     0.990380000000     0.0113406  
C374     C      0.811110000000     0.538790000000     0.957600000000    -0.072621   
C375     C      0.792700000000     0.519670000000     0.936430000000     0.0125074  
C376     C      0.772780000000     0.494720000000     0.947810000000    -0.0558359  
C377     C      0.730770000000     0.747730000000     0.961580000000    -0.0568158  
C378     C      0.751730000000     0.739070000000     0.980840000000     0.0212388  
C379     C      0.754380000000     0.747920000000     0.013000000000    -0.0563891  
C380     C      0.736250000000     0.764960000000     0.025750000000     0.013031   
C381     C      0.715320000000     0.773700000000     0.006490000000    -0.0730463  
C382     C      0.712820000000     0.765050000000     0.974250000000     0.0124962  
C383     C      0.770720000000     0.720640000000     0.967640000000     0.0222631  
C384     C      0.758960000000     0.695150000000     0.949650000000    -0.0573052  
C385     C      0.776760000000     0.676820000000     0.938890000000     0.0136866  
C386     C      0.806650000000     0.683880000000     0.945700000000    -0.0749677  
C387     C      0.818500000000     0.709860000000     0.962880000000     0.0140103  
C388     C      0.800680000000     0.727990000000     0.973860000000    -0.0576838  
C389     C      0.857330000000     0.648470000000     0.702580000000    -0.0562214  
C390     C      0.878380000000     0.635880000000     0.717370000000     0.0216982  
C391     C      0.897910000000     0.624780000000     0.698080000000    -0.056039   
C392     C      0.896720000000     0.626860000000     0.664720000000     0.0122174  
C393     C      0.876010000000     0.640090000000     0.650130000000    -0.0724086  
C394     C      0.856220000000     0.650640000000     0.669440000000     0.0127567  
C395     C      0.879710000000     0.634670000000     0.752810000000     0.0219286  
C396     C      0.875100000000     0.658640000000     0.771120000000    -0.0565621  
C397     C      0.873740000000     0.656860000000     0.804340000000     0.013111   
C398     C      0.877250000000     0.631160000000     0.820150000000    -0.0732449  
C399     C      0.883120000000     0.607610000000     0.802060000000     0.0130405  
C400     C      0.884290000000     0.609320000000     0.768660000000    -0.0562156  
C401     C      0.631140000000     0.854590000000     0.269180000000    -0.0558501  
C402     C      0.651630000000     0.843550000000     0.251300000000     0.0215807  
C403     C      0.675590000000     0.836900000000     0.267180000000    -0.0560391  
C404     C      0.678630000000     0.840380000000     0.300140000000     0.0124888  
C405     C      0.657940000000     0.850840000000     0.318130000000    -0.0716024  
C406     C      0.634280000000     0.858220000000     0.302330000000     0.0118029  
C407     C      0.648350000000     0.838740000000     0.216260000000     0.0217609  
C408     C      0.655520000000     0.813720000000     0.202240000000    -0.0562972  
C409     C      0.655080000000     0.810220000000     0.169170000000     0.0127875  
C410     C      0.647170000000     0.831480000000     0.149240000000    -0.0726667  
C411     C      0.638740000000     0.855870000000     0.163170000000     0.0123063  
C412     C      0.639380000000     0.859500000000     0.196400000000    -0.0560511  
C413     C      0.994860000000     0.747770000000     0.517850000000    -0.055323   
C414     C      0.507960000000     0.740320000000     0.489840000000     0.0214495  
C415     C      0.995490000000     0.713370000000     0.474480000000    -0.05506    
C416     C      0.970250000000     0.694620000000     0.486590000000     0.011474   
C417     C      0.956960000000     0.702400000000     0.514320000000    -0.0716354  
C418     C      0.969710000000     0.729070000000     0.529920000000     0.0116266  
C419     C      0.534620000000     0.760550000000     0.476920000000     0.0215503  
C420     C      0.537670000000     0.791530000000     0.477280000000    -0.0558332  
C421     C      0.563080000000     0.810510000000     0.465920000000     0.0120219  
C422     C      0.586020000000     0.798940000000     0.453980000000    -0.072016   
C423     C      0.582840000000     0.767990000000     0.453330000000     0.0121607  
C424     C      0.557490000000     0.749050000000     0.464630000000    -0.0561395  
C425     C      0.765820000000     0.539810000000     0.511250000000    -0.0559853  
C426     C      0.775020000000     0.019940000000     0.490480000000     0.0214181  
C427     C      0.804610000000     0.525490000000     0.481910000000    -0.0555908  
C428     C      0.824430000000     0.550440000000     0.493660000000     0.0116877  
C429     C      0.815060000000     0.570430000000     0.514150000000    -0.0716011  
C430     C      0.785550000000     0.564720000000     0.522890000000     0.0118366  
C431     C      0.753770000000     0.993670000000     0.477720000000     0.0214908  
C432     C      0.731970000000     0.976960000000     0.497460000000    -0.0558837  
C433     C      0.712490000000     0.951840000000     0.485650000000     0.0121045  
C434     C      0.714330000000     0.942870000000     0.453800000000    -0.0726923  
C435     C      0.735630000000     0.959990000000     0.433850000000     0.0121953  
C436     C      0.755110000000     0.985040000000     0.445660000000    -0.0560595  
C437     C      0.795850000000     0.732510000000     0.469720000000    -0.0567314  
C438     C      0.789060000000     0.754110000000     0.490110000000     0.0220303  
C439     C      0.800120000000     0.756620000000     0.521410000000    -0.0568296  
C440     C      0.817090000000     0.737560000000     0.532270000000     0.0135205  
C441     C      0.823510000000     0.715750000000     0.511990000000    -0.0741117  
C442     C      0.813000000000     0.713590000000     0.480510000000     0.0132495  
C443     C      0.769780000000     0.773300000000     0.479030000000     0.0218795  
C444     C      0.771890000000     0.784380000000     0.447660000000    -0.0566642  
C445     C      0.752750000000     0.801170000000     0.436770000000     0.013061   
C446     C      0.731250000000     0.807400000000     0.457100000000    -0.0735401  
C447     C      0.729500000000     0.796910000000     0.488660000000     0.0130646  
C448     C      0.748500000000     0.779930000000     0.499480000000    -0.0565756  
Cd1      Cd     0.168390000000     0.354930000000     0.421450000000     0.506741   
Cd2      Cd     0.371880000000     0.153110000000     0.547350000000     0.50802    
Cd3      Cd     0.362450000000     0.123850000000     0.922820000000     0.505743   
Cd4      Cd     0.157400000000     0.324650000000     0.046310000000     0.508607   
Cd5      Cd     0.168390000000     0.854930000000     0.421450000000     0.50677    
Cd6      Cd     0.371880000000     0.653110000000     0.547350000000     0.508032   
Cd7      Cd     0.362450000000     0.623860000000     0.922820000000     0.505746   
Cd8      Cd     0.157400000000     0.824650000000     0.046310000000     0.508612   
Cd9      Cd     0.668390000000     0.354930000000     0.421450000000     0.506744   
Cd10     Cd     0.871890000000     0.153110000000     0.547350000000     0.508027   
Cd11     Cd     0.862440000000     0.123850000000     0.922820000000     0.50575    
Cd12     Cd     0.657400000000     0.324650000000     0.046310000000     0.508624   
Cd13     Cd     0.668390000000     0.854930000000     0.421450000000     0.506773   
Cd14     Cd     0.871880000000     0.653110000000     0.547350000000     0.508037   
Cd15     Cd     0.862450000000     0.623860000000     0.922820000000     0.505752   
Cd16     Cd     0.657400000000     0.824650000000     0.046310000000     0.508616   
H1       H      0.017980000000     0.182920000000     0.950210000000     0.0499007  
H2       H      0.473070000000     0.148720000000     0.933370000000     0.0463588  
H3       H      0.424670000000     0.189260000000     0.000870000000     0.0483255  
H4       H      0.469440000000     0.223380000000     0.017490000000     0.0503728  
H5       H      0.005740000000     0.266240000000     0.992620000000     0.0502937  
H6       H      0.050430000000     0.301200000000     0.009270000000     0.0461262  
H7       H      0.094060000000     0.228820000000     0.015490000000     0.0473586  
H8       H      0.049730000000     0.194190000000     0.998890000000     0.0496445  
H9       H      0.214510000000     0.965470000000     0.960650000000     0.0498683  
H10      H      0.180750000000     0.420630000000     0.979670000000     0.0467559  
H11      H      0.245160000000     0.406510000000     0.047560000000     0.0476341  
H12      H      0.278920000000     0.450470000000     0.028140000000     0.049601   
H13      H      0.288190000000     0.503270000000     0.027280000000     0.0495493  
H14      H      0.323040000000     0.046630000000     0.007350000000     0.0468569  
H15      H      0.293470000000     0.024120000000     0.911010000000     0.0471802  
H16      H      0.259160000000     0.980330000000     0.930780000000     0.0499485  
H17      H      0.270180000000     0.241270000000     0.028430000000     0.0505198  
H18      H      0.238640000000     0.271290000000     0.050680000000     0.0474528  
H19      H      0.196840000000     0.271430000000     0.958860000000     0.0462891  
H20      H      0.228460000000     0.241330000000     0.936660000000     0.0499722  
H21      H      0.235870000000     0.188940000000     0.944700000000     0.0502555  
H22      H      0.267070000000     0.156940000000     0.925670000000     0.0458971  
H23      H      0.341470000000     0.215920000000     0.968450000000     0.04668    
H24      H      0.310320000000     0.247720000000     0.987360000000     0.05015    
H25      H      0.414470000000     0.115060000000     0.708750000000     0.0498635  
H26      H      0.412270000000     0.118540000000     0.650420000000     0.0460983  
H27      H      0.339810000000     0.160710000000     0.658980000000     0.0484419  
H28      H      0.341500000000     0.156590000000     0.716630000000     0.0502313  
H29      H      0.372190000000     0.178780000000     0.759740000000     0.0501348  
H30      H      0.369540000000     0.175530000000     0.817610000000     0.0465839  
H31      H      0.385920000000     0.087520000000     0.813620000000     0.0467533  
H32      H      0.387760000000     0.090420000000     0.755260000000     0.05008    
H33      H      0.192170000000     0.329050000000     0.254100000000     0.050263   
H34      H      0.197280000000     0.334750000000     0.311510000000     0.0486235  
H35      H      0.117970000000     0.366310000000     0.315610000000     0.0461818  
H36      H      0.112380000000     0.359820000000     0.257670000000     0.0497174  
H37      H      0.161840000000     0.296930000000     0.216860000000     0.0501918  
H38      H      0.161360000000     0.291010000000     0.159190000000     0.047775   
H39      H      0.132550000000     0.372620000000     0.148390000000     0.0462881  
H40      H      0.133850000000     0.379070000000     0.206430000000     0.0499696  
H41      H      0.504880000000     0.207040000000     0.452710000000     0.0498749  
H42      H      0.460880000000     0.174330000000     0.473910000000     0.0469052  
H43      H      0.460080000000     0.235740000000     0.551390000000     0.0474058  
H44      H      0.004130000000     0.268020000000     0.530640000000     0.0497461  
H45      H      0.020320000000     0.301140000000     0.486170000000     0.0500126  
H46      H      0.064800000000     0.334220000000     0.466650000000     0.046793   
H47      H      0.100110000000     0.258300000000     0.444330000000     0.0472338  
H48      H      0.056080000000     0.225390000000     0.464340000000     0.0499217  
H49      H      0.312520000000     0.510410000000     0.466280000000     0.0500665  
H50      H      0.347000000000     0.054200000000     0.486490000000     0.0469     
H51      H      0.277530000000     0.079690000000     0.538580000000     0.0474417  
H52      H      0.243190000000     0.036460000000     0.518060000000     0.0498476  
H53      H      0.230430000000     0.482830000000     0.522340000000     0.0498993  
H54      H      0.196490000000     0.439020000000     0.501710000000     0.0469098  
H55      H      0.237680000000     0.453700000000     0.409180000000     0.0470072  
H56      H      0.271260000000     0.497680000000     0.429640000000     0.0500785  
H57      H      0.295670000000     0.273330000000     0.537550000000     0.049857   
H58      H      0.325070000000     0.239850000000     0.556610000000     0.04722    
H59      H      0.317510000000     0.196910000000     0.464380000000     0.0463809  
H60      H      0.287340000000     0.229680000000     0.445630000000     0.0500155  
H61      H      0.288350000000     0.280070000000     0.431470000000     0.0496821  
H62      H      0.254740000000     0.309160000000     0.412370000000     0.0470789  
H63      H      0.213060000000     0.301280000000     0.504830000000     0.0467373  
H64      H      0.246000000000     0.271390000000     0.523640000000     0.0500032  
H65      H      0.017980000000     0.682920000000     0.950210000000     0.0498948  
H66      H      0.473070000000     0.648730000000     0.933370000000     0.0463703  
H67      H      0.424670000000     0.689260000000     0.000870000000     0.0483383  
H68      H      0.469440000000     0.723380000000     0.017490000000     0.050365   
H69      H      0.005740000000     0.766240000000     0.992620000000     0.0502944  
H70      H      0.050430000000     0.801200000000     0.009270000000     0.0461246  
H71      H      0.094060000000     0.728820000000     0.015490000000     0.0473564  
H72      H      0.049720000000     0.694190000000     0.998890000000     0.0496526  
H73      H      0.214510000000     0.465470000000     0.960650000000     0.0498732  
H74      H      0.180750000000     0.920630000000     0.979670000000     0.0467816  
H75      H      0.245160000000     0.906510000000     0.047550000000     0.0476439  
H76      H      0.278920000000     0.950470000000     0.028140000000     0.0495738  
H77      H      0.288190000000     0.003270000000     0.027280000000     0.0495637  
H78      H      0.323040000000     0.546630000000     0.007350000000     0.0468564  
H79      H      0.293470000000     0.524120000000     0.911010000000     0.0471877  
H80      H      0.259160000000     0.480330000000     0.930780000000     0.0499205  
H81      H      0.270180000000     0.741270000000     0.028430000000     0.0505134  
H82      H      0.238640000000     0.771290000000     0.050680000000     0.0474561  
H83      H      0.196840000000     0.771430000000     0.958860000000     0.046292   
H84      H      0.228450000000     0.741330000000     0.936660000000     0.0499614  
H85      H      0.235870000000     0.688940000000     0.944700000000     0.0502585  
H86      H      0.267070000000     0.656940000000     0.925670000000     0.045893   
H87      H      0.341470000000     0.715920000000     0.968450000000     0.046673   
H88      H      0.310320000000     0.747720000000     0.987350000000     0.0501717  
H89      H      0.414470000000     0.615060000000     0.708750000000     0.049862   
H90      H      0.412260000000     0.618540000000     0.650420000000     0.0461062  
H91      H      0.339800000000     0.660710000000     0.658980000000     0.0484194  
H92      H      0.341500000000     0.656590000000     0.716630000000     0.0502654  
H93      H      0.372190000000     0.678780000000     0.759740000000     0.0501259  
H94      H      0.369540000000     0.675530000000     0.817610000000     0.0465946  
H95      H      0.385920000000     0.587520000000     0.813620000000     0.046759   
H96      H      0.387760000000     0.590420000000     0.755250000000     0.0500562  
H97      H      0.192170000000     0.829050000000     0.254110000000     0.0502629  
H98      H      0.197280000000     0.834750000000     0.311510000000     0.0486149  
H99      H      0.117970000000     0.866310000000     0.315610000000     0.0461749  
H100     H      0.112380000000     0.859820000000     0.257670000000     0.0497206  
H101     H      0.161840000000     0.796930000000     0.216860000000     0.0501933  
H102     H      0.161360000000     0.791010000000     0.159190000000     0.0477677  
H103     H      0.132550000000     0.872620000000     0.148390000000     0.0462927  
H104     H      0.133850000000     0.879070000000     0.206430000000     0.0499662  
H105     H      0.504880000000     0.707040000000     0.452710000000     0.049876   
H106     H      0.460880000000     0.674330000000     0.473910000000     0.0469016  
H107     H      0.460080000000     0.735740000000     0.551390000000     0.0474006  
H108     H      0.004130000000     0.768020000000     0.530640000000     0.0497717  
H109     H      0.020320000000     0.801140000000     0.486170000000     0.0500196  
H110     H      0.064800000000     0.834230000000     0.466650000000     0.0467739  
H111     H      0.100110000000     0.758300000000     0.444330000000     0.0472225  
H112     H      0.056080000000     0.725390000000     0.464340000000     0.0499255  
H113     H      0.312520000000     0.010410000000     0.466280000000     0.050081   
H114     H      0.347000000000     0.554200000000     0.486490000000     0.0469014  
H115     H      0.277530000000     0.579690000000     0.538570000000     0.0474514  
H116     H      0.243190000000     0.536460000000     0.518060000000     0.0498299  
H117     H      0.230430000000     0.982830000000     0.522340000000     0.0498829  
H118     H      0.196490000000     0.939020000000     0.501710000000     0.0469164  
H119     H      0.237680000000     0.953700000000     0.409180000000     0.047013   
H120     H      0.271260000000     0.997680000000     0.429640000000     0.0500625  
H121     H      0.295670000000     0.773330000000     0.537550000000     0.0498483  
H122     H      0.325070000000     0.739850000000     0.556610000000     0.0472179  
H123     H      0.317510000000     0.696910000000     0.464380000000     0.0463909  
H124     H      0.287340000000     0.729680000000     0.445630000000     0.0500072  
H125     H      0.288350000000     0.780080000000     0.431470000000     0.0497313  
H126     H      0.254740000000     0.809160000000     0.412370000000     0.0470731  
H127     H      0.213060000000     0.801280000000     0.504830000000     0.0467352  
H128     H      0.246000000000     0.771390000000     0.523640000000     0.0500127  
H129     H      0.517980000000     0.182920000000     0.950210000000     0.0500509  
H130     H      0.973070000000     0.148720000000     0.933370000000     0.0464105  
H131     H      0.924670000000     0.189260000000     0.000870000000     0.0483351  
H132     H      0.969440000000     0.223380000000     0.017490000000     0.0504284  
H133     H      0.505740000000     0.266240000000     0.992620000000     0.0503637  
H134     H      0.550430000000     0.301200000000     0.009270000000     0.0461359  
H135     H      0.594060000000     0.228820000000     0.015490000000     0.0473575  
H136     H      0.549720000000     0.194190000000     0.998890000000     0.0497064  
H137     H      0.714510000000     0.965470000000     0.960650000000     0.0498702  
H138     H      0.680750000000     0.420630000000     0.979670000000     0.0467809  
H139     H      0.745160000000     0.406510000000     0.047560000000     0.0476418  
H140     H      0.778920000000     0.450470000000     0.028140000000     0.0496035  
H141     H      0.788190000000     0.503270000000     0.027280000000     0.0495514  
H142     H      0.823040000000     0.046630000000     0.007350000000     0.046874   
H143     H      0.793470000000     0.024120000000     0.911010000000     0.047187   
H144     H      0.759160000000     0.980330000000     0.930780000000     0.0499517  
H145     H      0.770180000000     0.241270000000     0.028430000000     0.0505313  
H146     H      0.738650000000     0.271290000000     0.050680000000     0.0474274  
H147     H      0.696840000000     0.271430000000     0.958860000000     0.0462844  
H148     H      0.728450000000     0.241330000000     0.936660000000     0.0499824  
H149     H      0.735870000000     0.188940000000     0.944700000000     0.05026    
H150     H      0.767070000000     0.156940000000     0.925670000000     0.0459015  
H151     H      0.841470000000     0.215920000000     0.968450000000     0.0466892  
H152     H      0.810320000000     0.247720000000     0.987360000000     0.0501565  
H153     H      0.914470000000     0.115060000000     0.708750000000     0.0498934  
H154     H      0.912270000000     0.118540000000     0.650420000000     0.0460869  
H155     H      0.839800000000     0.160710000000     0.658980000000     0.048418   
H156     H      0.841500000000     0.156590000000     0.716630000000     0.0502528  
H157     H      0.872190000000     0.178780000000     0.759740000000     0.0501352  
H158     H      0.869540000000     0.175530000000     0.817610000000     0.0466036  
H159     H      0.885920000000     0.087520000000     0.813620000000     0.0467675  
H160     H      0.887760000000     0.090420000000     0.755260000000     0.050086   
H161     H      0.692170000000     0.329050000000     0.254100000000     0.0502675  
H162     H      0.697280000000     0.334750000000     0.311510000000     0.0486277  
H163     H      0.617970000000     0.366310000000     0.315610000000     0.0461928  
H164     H      0.612380000000     0.359820000000     0.257670000000     0.0497302  
H165     H      0.661840000000     0.296930000000     0.216860000000     0.0501918  
H166     H      0.661360000000     0.291010000000     0.159190000000     0.0477914  
H167     H      0.632550000000     0.372620000000     0.148390000000     0.0462959  
H168     H      0.633850000000     0.379070000000     0.206430000000     0.0499775  
H169     H      0.004880000000     0.207040000000     0.452710000000     0.0496103  
H170     H      0.960880000000     0.174330000000     0.473910000000     0.0470082  
H171     H      0.960080000000     0.235740000000     0.551390000000     0.0475061  
H172     H      0.504130000000     0.268020000000     0.530640000000     0.0500125  
H173     H      0.520320000000     0.301140000000     0.486170000000     0.0500098  
H174     H      0.564800000000     0.334220000000     0.466650000000     0.0468225  
H175     H      0.600110000000     0.258300000000     0.444330000000     0.0472565  
H176     H      0.556080000000     0.225390000000     0.464340000000     0.0499096  
H177     H      0.812520000000     0.510410000000     0.466280000000     0.0500746  
H178     H      0.847000000000     0.054200000000     0.486490000000     0.046912   
H179     H      0.777540000000     0.079690000000     0.538580000000     0.0474607  
H180     H      0.743190000000     0.036460000000     0.518060000000     0.0498496  
H181     H      0.730420000000     0.482830000000     0.522340000000     0.0498984  
H182     H      0.696490000000     0.439020000000     0.501710000000     0.0469174  
H183     H      0.737680000000     0.453700000000     0.409180000000     0.0470129  
H184     H      0.771260000000     0.497680000000     0.429640000000     0.0500839  
H185     H      0.795670000000     0.273330000000     0.537550000000     0.0498612  
H186     H      0.825070000000     0.239850000000     0.556610000000     0.0472286  
H187     H      0.817510000000     0.196910000000     0.464380000000     0.0463953  
H188     H      0.787340000000     0.229680000000     0.445630000000     0.0500161  
H189     H      0.788350000000     0.280070000000     0.431470000000     0.04969    
H190     H      0.754740000000     0.309160000000     0.412370000000     0.0470839  
H191     H      0.713060000000     0.301280000000     0.504830000000     0.0467423  
H192     H      0.746000000000     0.271390000000     0.523640000000     0.0500086  
H193     H      0.517980000000     0.682920000000     0.950210000000     0.0500428  
H194     H      0.973070000000     0.648730000000     0.933370000000     0.0464188  
H195     H      0.924670000000     0.689260000000     0.000870000000     0.0483373  
H196     H      0.969440000000     0.723380000000     0.017490000000     0.0504264  
H197     H      0.505740000000     0.766240000000     0.992620000000     0.050364   
H198     H      0.550430000000     0.801200000000     0.009270000000     0.0461346  
H199     H      0.594060000000     0.728820000000     0.015490000000     0.0473567  
H200     H      0.549720000000     0.694190000000     0.998890000000     0.0497054  
H201     H      0.714510000000     0.465470000000     0.960650000000     0.0498845  
H202     H      0.680750000000     0.920630000000     0.979670000000     0.0467972  
H203     H      0.745160000000     0.906510000000     0.047550000000     0.0476461  
H204     H      0.778920000000     0.950470000000     0.028140000000     0.0495803  
H205     H      0.788190000000     0.003270000000     0.027280000000     0.0495643  
H206     H      0.823040000000     0.546630000000     0.007350000000     0.0468734  
H207     H      0.793470000000     0.524120000000     0.911010000000     0.0471945  
H208     H      0.759160000000     0.480330000000     0.930780000000     0.0499244  
H209     H      0.770180000000     0.741270000000     0.028430000000     0.050553   
H210     H      0.738650000000     0.771290000000     0.050680000000     0.0474421  
H211     H      0.696840000000     0.771430000000     0.958860000000     0.0462892  
H212     H      0.728450000000     0.741330000000     0.936660000000     0.0499742  
H213     H      0.735870000000     0.688940000000     0.944700000000     0.0502619  
H214     H      0.767070000000     0.656940000000     0.925670000000     0.0458983  
H215     H      0.841470000000     0.715920000000     0.968450000000     0.0466831  
H216     H      0.810320000000     0.747720000000     0.987350000000     0.0501782  
H217     H      0.914470000000     0.615060000000     0.708750000000     0.0498906  
H218     H      0.912270000000     0.618540000000     0.650420000000     0.0460867  
H219     H      0.839800000000     0.660710000000     0.658980000000     0.048422   
H220     H      0.841500000000     0.656590000000     0.716630000000     0.0502479  
H221     H      0.872190000000     0.678780000000     0.759740000000     0.0501335  
H222     H      0.869540000000     0.675530000000     0.817610000000     0.0466036  
H223     H      0.885920000000     0.587520000000     0.813620000000     0.0467705  
H224     H      0.887760000000     0.590420000000     0.755250000000     0.0500644  
H225     H      0.692170000000     0.829050000000     0.254100000000     0.0502621  
H226     H      0.697280000000     0.834750000000     0.311510000000     0.0485988  
H227     H      0.617970000000     0.866310000000     0.315610000000     0.0461814  
H228     H      0.612380000000     0.859820000000     0.257670000000     0.0497359  
H229     H      0.661840000000     0.796930000000     0.216860000000     0.0501964  
H230     H      0.661360000000     0.791010000000     0.159190000000     0.0477784  
H231     H      0.632550000000     0.872620000000     0.148390000000     0.0462993  
H232     H      0.633850000000     0.879070000000     0.206430000000     0.0499748  
H233     H      0.004880000000     0.707040000000     0.452710000000     0.0496075  
H234     H      0.960880000000     0.674330000000     0.473910000000     0.0470121  
H235     H      0.960080000000     0.735740000000     0.551390000000     0.0475097  
H236     H      0.504130000000     0.768020000000     0.530640000000     0.0500419  
H237     H      0.520320000000     0.801140000000     0.486170000000     0.0500164  
H238     H      0.564800000000     0.834230000000     0.466650000000     0.0468037  
H239     H      0.600110000000     0.758300000000     0.444330000000     0.0472454  
H240     H      0.556080000000     0.725390000000     0.464340000000     0.0499126  
H241     H      0.812520000000     0.010410000000     0.466280000000     0.0500871  
H242     H      0.847000000000     0.554200000000     0.486490000000     0.046912   
H243     H      0.777530000000     0.579690000000     0.538570000000     0.0474554  
H244     H      0.743190000000     0.536460000000     0.518060000000     0.0498348  
H245     H      0.730430000000     0.982830000000     0.522340000000     0.0498885  
H246     H      0.696490000000     0.939020000000     0.501710000000     0.0469229  
H247     H      0.737680000000     0.953700000000     0.409180000000     0.0470178  
H248     H      0.771260000000     0.997680000000     0.429640000000     0.0500686  
H249     H      0.795670000000     0.773330000000     0.537550000000     0.0498538  
H250     H      0.825070000000     0.739850000000     0.556610000000     0.0472255  
H251     H      0.817510000000     0.696910000000     0.464380000000     0.0464039  
H252     H      0.787340000000     0.729680000000     0.445630000000     0.0500092  
H253     H      0.788350000000     0.780080000000     0.431470000000     0.0497082  
H254     H      0.754740000000     0.809160000000     0.412370000000     0.0470804  
H255     H      0.713060000000     0.801280000000     0.504830000000     0.0467425  
H256     H      0.746000000000     0.771390000000     0.523640000000     0.050014   
O1       O      0.208880000000     0.330320000000     0.415920000000    -0.228925   
O2       O      0.117660000000     0.346750000000     0.442760000000    -0.233266   
O3       O      0.180300000000     0.342890000000     0.367480000000    -0.229371   
O4       O      0.199650000000     0.404770000000     0.414560000000    -0.240334   
O5       O      0.177940000000     0.397360000000     0.459770000000    -0.235126   
O6       O      0.144690000000     0.364730000000     0.370700000000    -0.235808   
O7       O      0.192290000000     0.332250000000     0.463550000000    -0.236198   
O8       O      0.134230000000     0.308100000000     0.432770000000    -0.23914    
O9       O      0.346910000000     0.193740000000     0.553060000000    -0.22947    
O10      O      0.362320000000     0.103930000000     0.519370000000    -0.232243   
O11      O      0.358540000000     0.158590000000     0.602590000000    -0.231391   
O12      O      0.415820000000     0.192670000000     0.549180000000    -0.239914   
O13      O      0.416440000000     0.159750000000     0.513190000000    -0.232761   
O14      O      0.390580000000     0.132630000000     0.596040000000    -0.23794    
O15      O      0.348700000000     0.176670000000     0.505460000000    -0.239082   
O16      O      0.326160000000     0.116550000000     0.542180000000    -0.239326   
O17      O      0.352430000000     0.170570000000     0.941030000000    -0.232548   
O18      O      0.416320000000     0.132980000000     0.927850000000    -0.23541    
O19      O      0.362950000000     0.147380000000     0.870620000000    -0.239015   
O20      O      0.329560000000     0.074580000000     0.917000000000    -0.236765   
O21      O      0.347580000000     0.084180000000     0.963800000000    -0.23899    
O22      O      0.379160000000     0.107530000000     0.871090000000    -0.232552   
O23      O      0.315150000000     0.138360000000     0.924600000000    -0.236242   
O24      O      0.393530000000     0.149710000000     0.965460000000    -0.230232   
O25      O      0.194680000000     0.295730000000     0.049880000000    -0.228072   
O26      O      0.165750000000     0.371630000000     0.014190000000    -0.232485   
O27      O      0.162160000000     0.310340000000     0.101810000000    -0.231857   
O28      O      0.123260000000     0.278080000000     0.036310000000    -0.239457   
O29      O      0.107060000000     0.316280000000     0.023180000000    -0.232816   
O30      O      0.139660000000     0.345430000000     0.095040000000    -0.23882    
O31      O      0.179490000000     0.302740000000     0.002520000000    -0.237656   
O32      O      0.199090000000     0.366300000000     0.047200000000    -0.240485   
O33      O      0.208880000000     0.830320000000     0.415920000000    -0.228979   
O34      O      0.117660000000     0.846750000000     0.442760000000    -0.233392   
O35      O      0.180300000000     0.842890000000     0.367480000000    -0.229396   
O36      O      0.199650000000     0.904770000000     0.414560000000    -0.24033    
O37      O      0.177940000000     0.897360000000     0.459770000000    -0.235051   
O38      O      0.144690000000     0.864720000000     0.370700000000    -0.235884   
O39      O      0.192290000000     0.832250000000     0.463550000000    -0.236272   
O40      O      0.134230000000     0.808110000000     0.432770000000    -0.239192   
O41      O      0.346910000000     0.693730000000     0.553060000000    -0.22945    
O42      O      0.362320000000     0.603930000000     0.519370000000    -0.232244   
O43      O      0.358540000000     0.658590000000     0.602590000000    -0.231391   
O44      O      0.415820000000     0.692670000000     0.549180000000    -0.239916   
O45      O      0.416440000000     0.659750000000     0.513190000000    -0.232765   
O46      O      0.390580000000     0.632630000000     0.596040000000    -0.237944   
O47      O      0.348700000000     0.676670000000     0.505460000000    -0.239058   
O48      O      0.326160000000     0.616550000000     0.542180000000    -0.239322   
O49      O      0.352430000000     0.670570000000     0.941030000000    -0.232577   
O50      O      0.416320000000     0.632980000000     0.927850000000    -0.235392   
O51      O      0.362950000000     0.647380000000     0.870620000000    -0.239028   
O52      O      0.329560000000     0.574580000000     0.917000000000    -0.236744   
O53      O      0.347580000000     0.584180000000     0.963800000000    -0.238974   
O54      O      0.379160000000     0.607530000000     0.871090000000    -0.232541   
O55      O      0.315150000000     0.638360000000     0.924600000000    -0.236256   
O56      O      0.393530000000     0.649710000000     0.965460000000    -0.230228   
O57      O      0.194680000000     0.795730000000     0.049880000000    -0.228068   
O58      O      0.165750000000     0.871630000000     0.014190000000    -0.232443   
O59      O      0.162160000000     0.810340000000     0.101810000000    -0.231858   
O60      O      0.123260000000     0.778080000000     0.036310000000    -0.239458   
O61      O      0.107060000000     0.816280000000     0.023180000000    -0.232818   
O62      O      0.139660000000     0.845430000000     0.095040000000    -0.238825   
O63      O      0.179490000000     0.802740000000     0.002520000000    -0.237653   
O64      O      0.199090000000     0.866290000000     0.047200000000    -0.240398   
O65      O      0.708880000000     0.330320000000     0.415920000000    -0.228922   
O66      O      0.617660000000     0.346750000000     0.442760000000    -0.233252   
O67      O      0.680300000000     0.342890000000     0.367480000000    -0.229367   
O68      O      0.699650000000     0.404770000000     0.414560000000    -0.24033    
O69      O      0.677940000000     0.397360000000     0.459770000000    -0.235119   
O70      O      0.644690000000     0.364730000000     0.370700000000    -0.2358     
O71      O      0.692290000000     0.332250000000     0.463550000000    -0.236194   
O72      O      0.634230000000     0.308100000000     0.432770000000    -0.239131   
O73      O      0.846910000000     0.193740000000     0.553060000000    -0.229444   
O74      O      0.862320000000     0.103930000000     0.519370000000    -0.232234   
O75      O      0.858540000000     0.158590000000     0.602590000000    -0.231384   
O76      O      0.915820000000     0.192670000000     0.549180000000    -0.239939   
O77      O      0.916440000000     0.159760000000     0.513190000000    -0.232854   
O78      O      0.890580000000     0.132630000000     0.596040000000    -0.23795    
O79      O      0.848700000000     0.176670000000     0.505460000000    -0.239055   
O80      O      0.826160000000     0.116550000000     0.542180000000    -0.239301   
O81      O      0.852430000000     0.170570000000     0.941030000000    -0.232552   
O82      O      0.916320000000     0.132980000000     0.927850000000    -0.235365   
O83      O      0.862950000000     0.147380000000     0.870620000000    -0.23901    
O84      O      0.829560000000     0.074580000000     0.917000000000    -0.23677    
O85      O      0.847580000000     0.084180000000     0.963800000000    -0.238982   
O86      O      0.879160000000     0.107530000000     0.871090000000    -0.232528   
O87      O      0.815150000000     0.138360000000     0.924600000000    -0.236266   
O88      O      0.893530000000     0.149710000000     0.965460000000    -0.230209   
O89      O      0.694670000000     0.295730000000     0.049880000000    -0.22806    
O90      O      0.665750000000     0.371630000000     0.014190000000    -0.232476   
O91      O      0.662160000000     0.310340000000     0.101810000000    -0.231846   
O92      O      0.623260000000     0.278080000000     0.036310000000    -0.239448   
O93      O      0.607060000000     0.316280000000     0.023180000000    -0.232808   
O94      O      0.639660000000     0.345430000000     0.095040000000    -0.238807   
O95      O      0.679500000000     0.302740000000     0.002520000000    -0.237638   
O96      O      0.699090000000     0.366300000000     0.047200000000    -0.240481   
O97      O      0.708880000000     0.830320000000     0.415920000000    -0.228974   
O98      O      0.617660000000     0.846750000000     0.442760000000    -0.233377   
O99      O      0.680300000000     0.842890000000     0.367480000000    -0.229397   
O100     O      0.699650000000     0.904770000000     0.414560000000    -0.240326   
O101     O      0.677940000000     0.897360000000     0.459770000000    -0.235044   
O102     O      0.644690000000     0.864720000000     0.370700000000    -0.235879   
O103     O      0.692290000000     0.832250000000     0.463550000000    -0.236267   
O104     O      0.634230000000     0.808110000000     0.432770000000    -0.239183   
O105     O      0.846910000000     0.693730000000     0.553060000000    -0.229443   
O106     O      0.862320000000     0.603930000000     0.519370000000    -0.232233   
O107     O      0.858540000000     0.658590000000     0.602590000000    -0.23139    
O108     O      0.915820000000     0.692670000000     0.549180000000    -0.239882   
O109     O      0.916440000000     0.659750000000     0.513190000000    -0.232728   
O110     O      0.890580000000     0.632630000000     0.596040000000    -0.237936   
O111     O      0.848700000000     0.676670000000     0.505460000000    -0.23905    
O112     O      0.826160000000     0.616550000000     0.542180000000    -0.239319   
O113     O      0.852430000000     0.670570000000     0.941030000000    -0.232569   
O114     O      0.916320000000     0.632980000000     0.927850000000    -0.235388   
O115     O      0.862950000000     0.647380000000     0.870620000000    -0.239021   
O116     O      0.829560000000     0.574580000000     0.917000000000    -0.236737   
O117     O      0.847580000000     0.584180000000     0.963800000000    -0.238963   
O118     O      0.879160000000     0.607530000000     0.871090000000    -0.23253    
O119     O      0.815150000000     0.638360000000     0.924600000000    -0.236253   
O120     O      0.893530000000     0.649710000000     0.965460000000    -0.23023    
O121     O      0.694680000000     0.795730000000     0.049880000000    -0.22802    
O122     O      0.665750000000     0.871630000000     0.014190000000    -0.232431   
O123     O      0.662160000000     0.810340000000     0.101810000000    -0.231853   
O124     O      0.623260000000     0.778080000000     0.036310000000    -0.23945    
O125     O      0.607060000000     0.816280000000     0.023180000000    -0.232809   
O126     O      0.639660000000     0.845430000000     0.095040000000    -0.238814   
O127     O      0.679490000000     0.802740000000     0.002520000000    -0.237552   
O128     O      0.699090000000     0.866290000000     0.047200000000    -0.240389   


