data_structure

_audit_creation_method RASPA-1.0
_audit_creation_date 2023-5-22
_audit_author_name 'Poobodin Mano'

_cell_length_a    75.6483
_cell_length_b    75.9059
_cell_length_c    75.9556
_cell_angle_alpha 90.5049
_cell_angle_beta  90.5051
_cell_angle_gamma 90.5045
_cell_volume      436098

_symmetry_cell_setting          triclinic
_symmetry_space_group_name_Hall 'P 1'
_symmetry_space_group_name_H-M  'P 1'
_symmetry_Int_Tables_number     1

_symmetry_equiv_pos_as_xyz 'x,y,z'

loop_
_atom_site_label
_atom_site_type_symbol
_atom_site_fract_x
_atom_site_fract_y
_atom_site_fract_z
_atom_site_charge
C1       C      0.548420000000     0.726490000000     0.889080000000     0.287843   
C2       C      0.612010000000     0.708100000000     0.881980000000     0.289466   
C3       C      0.591230000000     0.762710000000     0.866010000000     0.287988   
C4       C      0.592290000000     0.737990000000     0.927680000000     0.288411   
C5       C      0.592690000000     0.739110000000     0.060220000000     0.287355   
C6       C      0.594900000000     0.764650000000     0.123210000000     0.287379   
C7       C      0.549730000000     0.735360000000     0.099870000000     0.288161   
C8       C      0.612290000000     0.710020000000     0.107140000000     0.287658   
C9       C      0.416280000000     0.726990000000     0.883970000000     0.290627   
C10      C      0.354850000000     0.711890000000     0.881650000000     0.289969   
C11      C      0.376810000000     0.752380000000     0.923030000000     0.290105   
C12      C      0.374970000000     0.766910000000     0.861570000000     0.290764   
C13      C      0.416580000000     0.737340000000     0.097510000000     0.289243   
C14      C      0.354370000000     0.712100000000     0.094670000000     0.288237   
C15      C      0.370350000000     0.766740000000     0.118090000000     0.288834   
C16      C      0.378810000000     0.749590000000     0.054520000000     0.287528   
C17      C      0.730550000000     0.420060000000     0.883550000000     0.2879     
C18      C      0.705400000000     0.357250000000     0.877430000000     0.287494   
C19      C      0.759180000000     0.374860000000     0.860150000000     0.288023   
C20      C      0.736420000000     0.377240000000     0.923780000000     0.288309   
C21      C      0.732060000000     0.422200000000     0.097380000000     0.287841   
C22      C      0.708030000000     0.358920000000     0.101470000000     0.287479   
C23      C      0.737580000000     0.379840000000     0.056430000000     0.287723   
C24      C      0.762930000000     0.378640000000     0.119580000000     0.287282   
C25      C      0.705810000000     0.615100000000     0.881430000000     0.287624   
C26      C      0.731280000000     0.552980000000     0.885230000000     0.288402   
C27      C      0.761760000000     0.598450000000     0.865250000000     0.2878     
C28      C      0.735580000000     0.595490000000     0.927000000000     0.288176   
C29      C      0.735810000000     0.597020000000     0.059710000000     0.288209   
C30      C      0.760720000000     0.600850000000     0.122840000000     0.287844   
C31      C      0.707010000000     0.618320000000     0.106030000000     0.288005   
C32      C      0.730810000000     0.555030000000     0.100310000000     0.287839   
C33      C      0.553340000000     0.875580000000     0.247350000000     0.288662   
C34      C      0.616880000000     0.876970000000     0.270660000000     0.288691   
C35      C      0.600380000000     0.859260000000     0.216340000000     0.287866   
C36      C      0.591630000000     0.921280000000     0.240140000000     0.287469   
C37      C      0.550410000000     0.098980000000     0.242920000000     0.287817   
C38      C      0.613300000000     0.098550000000     0.267690000000     0.287327   
C39      C      0.589210000000     0.054140000000     0.236800000000     0.288251   
C40      C      0.595880000000     0.116670000000     0.212650000000     0.288055   
C41      C      0.370230000000     0.117430000000     0.214000000000     0.287304   
C42      C      0.380460000000     0.055600000000     0.237800000000     0.287412   
C43      C      0.417750000000     0.101610000000     0.245050000000     0.288522   
C44      C      0.353970000000     0.098890000000     0.267650000000     0.288045   
C45      C      0.374510000000     0.860120000000     0.212600000000     0.28855    
C46      C      0.382120000000     0.922650000000     0.236930000000     0.288815   
C47      C      0.357810000000     0.878650000000     0.267490000000     0.287151   
C48      C      0.420630000000     0.877510000000     0.243560000000     0.287793   
C49      C      0.372810000000     0.226630000000     0.924490000000     0.288881   
C50      C      0.370390000000     0.206020000000     0.864570000000     0.290361   
C51      C      0.353940000000     0.263930000000     0.881300000000     0.289298   
C52      C      0.414100000000     0.246280000000     0.881490000000     0.291103   
C53      C      0.372850000000     0.209300000000     0.119620000000     0.287911   
C54      C      0.371820000000     0.229620000000     0.056400000000     0.287738   
C55      C      0.354480000000     0.263560000000     0.101530000000     0.288774   
C56      C      0.416770000000     0.241000000000     0.094110000000     0.288127   
C57      C      0.546210000000     0.244710000000     0.878610000000     0.288448   
C58      C      0.609180000000     0.265150000000     0.881870000000     0.288713   
C59      C      0.582840000000     0.231960000000     0.924270000000     0.288674   
C60      C      0.592390000000     0.209750000000     0.863110000000     0.28956    
C61      C      0.549940000000     0.240400000000     0.098280000000     0.288293   
C62      C      0.614240000000     0.263990000000     0.101250000000     0.287245   
C63      C      0.595520000000     0.210820000000     0.120360000000     0.287312   
C64      C      0.588860000000     0.233740000000     0.056850000000     0.28742    
C65      C      0.051480000000     0.380170000000     0.237980000000     0.287474   
C66      C      0.114510000000     0.378780000000     0.212930000000     0.287604   
C67      C      0.091960000000     0.423030000000     0.242860000000     0.288254   
C68      C      0.098560000000     0.360510000000     0.267360000000     0.287556   
C69      C      0.856040000000     0.381790000000     0.215380000000     0.288288   
C70      C      0.918440000000     0.379820000000     0.239300000000     0.288696   
C71      C      0.880870000000     0.423070000000     0.252960000000     0.287486   
C72      C      0.872810000000     0.359820000000     0.269970000000     0.289304   
C73      C      0.877940000000     0.554700000000     0.253590000000     0.291155   
C74      C      0.878350000000     0.614890000000     0.270820000000     0.287886   
C75      C      0.918780000000     0.592380000000     0.230170000000     0.288465   
C76      C      0.857460000000     0.598390000000     0.214170000000     0.292142   
C77      C      0.094590000000     0.555670000000     0.241270000000     0.288412   
C78      C      0.092930000000     0.618590000000     0.265690000000     0.287752   
C79      C      0.114840000000     0.601700000000     0.211800000000     0.288468   
C80      C      0.051180000000     0.592360000000     0.230780000000     0.287433   
C81      C      0.260120000000     0.617730000000     0.881000000000     0.288642   
C82      C      0.237870000000     0.554230000000     0.876870000000     0.288629   
C83      C      0.229000000000     0.590280000000     0.923270000000     0.287818   
C84      C      0.205960000000     0.600450000000     0.861060000000     0.287663   
C85      C      0.239420000000     0.552760000000     0.102810000000     0.287216   
C86      C      0.262200000000     0.615340000000     0.097850000000     0.287451   
C87      C      0.227770000000     0.588150000000     0.055830000000     0.289001   
C88      C      0.207540000000     0.598470000000     0.118060000000     0.289543   
C89      C      0.232080000000     0.379320000000     0.055980000000     0.288031   
C90      C      0.206930000000     0.374680000000     0.118620000000     0.28769    
C91      C      0.260820000000     0.356790000000     0.100670000000     0.287314   
C92      C      0.238110000000     0.420470000000     0.098750000000     0.287602   
C93      C      0.207600000000     0.377560000000     0.860220000000     0.287741   
C94      C      0.231890000000     0.381840000000     0.923220000000     0.288315   
C95      C      0.263110000000     0.359970000000     0.878790000000     0.287535   
C96      C      0.238110000000     0.422110000000     0.879730000000     0.288329   
C97      C      0.873430000000     0.722340000000     0.562240000000     0.289889   
C98      C      0.875120000000     0.706890000000     0.623340000000     0.289262   
C99      C      0.916250000000     0.746710000000     0.599850000000     0.291407   
C100     C      0.855160000000     0.762180000000     0.605340000000     0.290426   
C101     C      0.048400000000     0.748680000000     0.594310000000     0.288464   
C102     C      0.110950000000     0.768140000000     0.602850000000     0.290058   
C103     C      0.090470000000     0.712550000000     0.618480000000     0.288224   
C104     C      0.093890000000     0.735460000000     0.557060000000     0.287973   
C105     C      0.872500000000     0.705510000000     0.368120000000     0.290721   
C106     C      0.876850000000     0.723060000000     0.430840000000     0.290724   
C107     C      0.916740000000     0.738380000000     0.386090000000     0.288121   
C108     C      0.856240000000     0.761500000000     0.388140000000     0.287183   
C109     C      0.093850000000     0.711390000000     0.361410000000     0.287488   
C110     C      0.093560000000     0.735670000000     0.424850000000     0.287305   
C111     C      0.112980000000     0.765240000000     0.378660000000     0.287522   
C112     C      0.049620000000     0.740960000000     0.384580000000     0.288166   
C113     C      0.088370000000     0.423540000000     0.730270000000     0.28736    
C114     C      0.095940000000     0.359760000000     0.711430000000     0.288795   
C115     C      0.113720000000     0.381640000000     0.765480000000     0.288164   
C116     C      0.050640000000     0.380270000000     0.741480000000     0.288446   
C117     C      0.872120000000     0.358150000000     0.714540000000     0.287504   
C118     C      0.875370000000     0.421270000000     0.740290000000     0.287676   
C119     C      0.854310000000     0.375340000000     0.768580000000     0.287465   
C120     C      0.917560000000     0.380250000000     0.743950000000     0.288196   
C121     C      0.878540000000     0.615790000000     0.719060000000     0.287645   
C122     C      0.876240000000     0.553870000000     0.743190000000     0.288161   
C123     C      0.920350000000     0.591820000000     0.755220000000     0.287951   
C124     C      0.856580000000     0.599490000000     0.773320000000     0.289463   
C125     C      0.089730000000     0.555500000000     0.726180000000     0.288437   
C126     C      0.093490000000     0.616810000000     0.709460000000     0.291676   
C127     C      0.052250000000     0.595830000000     0.750680000000     0.29101    
C128     C      0.113310000000     0.597650000000     0.765350000000     0.288427   
C129     C      0.228970000000     0.054610000000     0.385830000000     0.288413   
C130     C      0.206510000000     0.117500000000     0.378210000000     0.288939   
C131     C      0.237120000000     0.099660000000     0.424200000000     0.287443   
C132     C      0.260590000000     0.098540000000     0.361420000000     0.287395   
C133     C      0.231290000000     0.921850000000     0.382570000000     0.287914   
C134     C      0.208640000000     0.857810000000     0.376080000000     0.287364   
C135     C      0.262020000000     0.877870000000     0.358770000000     0.287621   
C136     C      0.237770000000     0.880240000000     0.422080000000     0.288172   
C137     C      0.263400000000     0.875080000000     0.617400000000     0.288134   
C138     C      0.238210000000     0.881560000000     0.554850000000     0.28851    
C139     C      0.207890000000     0.859350000000     0.598870000000     0.287484   
C140     C      0.234030000000     0.921880000000     0.597660000000     0.287683   
C141     C      0.239790000000     0.094000000000     0.556570000000     0.287268   
C142     C      0.262760000000     0.100500000000     0.620180000000     0.287664   
C143     C      0.208670000000     0.117710000000     0.600670000000     0.287487   
C144     C      0.233330000000     0.054660000000     0.599210000000     0.287876   
C145     C      0.115770000000     0.213210000000     0.376570000000     0.287426   
C146     C      0.052500000000     0.236860000000     0.382900000000     0.287523   
C147     C      0.095730000000     0.242330000000     0.422850000000     0.287947   
C148     C      0.098120000000     0.266410000000     0.359510000000     0.287841   
C149     C      0.919130000000     0.235600000000     0.384860000000     0.288221   
C150     C      0.856350000000     0.210580000000     0.379000000000     0.288169   
C151     C      0.875000000000     0.240610000000     0.424830000000     0.287951   
C152     C      0.874070000000     0.266150000000     0.362870000000     0.287367   
C153     C      0.873120000000     0.263660000000     0.620840000000     0.28837    
C154     C      0.872170000000     0.240900000000     0.557150000000     0.288313   
C155     C      0.917470000000     0.234240000000     0.595800000000     0.288087   
C156     C      0.855210000000     0.209570000000     0.603810000000     0.287154   
C157     C      0.094410000000     0.239590000000     0.555370000000     0.28807    
C158     C      0.095630000000     0.265080000000     0.617800000000     0.287375   
C159     C      0.050860000000     0.233810000000     0.594990000000     0.287921   
C160     C      0.113780000000     0.209780000000     0.600570000000     0.288014   
C161     C      0.732350000000     0.878700000000     0.562640000000     0.287636   
C162     C      0.708760000000     0.873790000000     0.626000000000     0.287633   
C163     C      0.761590000000     0.855420000000     0.607800000000     0.287755   
C164     C      0.738530000000     0.919250000000     0.604700000000     0.288013   
C165     C      0.761200000000     0.115210000000     0.600950000000     0.287172   
C166     C      0.737320000000     0.051750000000     0.599310000000     0.287588   
C167     C      0.706750000000     0.096760000000     0.619940000000     0.288016   
C168     C      0.731120000000     0.091220000000     0.556900000000     0.288275   
C169     C      0.709080000000     0.097270000000     0.360500000000     0.287603   
C170     C      0.732620000000     0.092880000000     0.424120000000     0.287927   
C171     C      0.739340000000     0.052220000000     0.382580000000     0.287742   
C172     C      0.762260000000     0.116240000000     0.378860000000     0.287584   
C173     C      0.709610000000     0.874010000000     0.366330000000     0.287701   
C174     C      0.732850000000     0.880330000000     0.429930000000     0.288291   
C175     C      0.763900000000     0.856370000000     0.387640000000     0.287109   
C176     C      0.739650000000     0.919630000000     0.387740000000     0.28756    
C177     C      0.421550000000     0.878010000000     0.733720000000     0.288119   
C178     C      0.357210000000     0.873470000000     0.711660000000     0.287684   
C179     C      0.376430000000     0.856750000000     0.764900000000     0.28759    
C180     C      0.380480000000     0.919550000000     0.740500000000     0.28833    
C181     C      0.358270000000     0.098950000000     0.712940000000     0.287982   
C182     C      0.421060000000     0.094560000000     0.738980000000     0.288563   
C183     C      0.376080000000     0.114490000000     0.768570000000     0.287479   
C184     C      0.379720000000     0.052400000000     0.741760000000     0.287412   
C185     C      0.614510000000     0.875240000000     0.718550000000     0.288585   
C186     C      0.553860000000     0.874370000000     0.735960000000     0.289233   
C187     C      0.596660000000     0.857960000000     0.774840000000     0.290961   
C188     C      0.592670000000     0.918880000000     0.756820000000     0.2918     
C189     C      0.592180000000     0.050920000000     0.751570000000     0.287113   
C190     C      0.599990000000     0.114740000000     0.770740000000     0.288809   
C191     C      0.616320000000     0.093290000000     0.716320000000     0.287736   
C192     C      0.554130000000     0.094300000000     0.740890000000     0.288474   
C193     C      0.609170000000     0.966160000000     0.758330000000    -0.0568258  
C194     C      0.593360000000     0.975370000000     0.761040000000     0.0225334  
C195     C      0.577730000000     0.965760000000     0.764050000000    -0.0572398  
C196     C      0.577710000000     0.947360000000     0.763510000000     0.0135206  
C197     C      0.593320000000     0.938160000000     0.759870000000    -0.0745331  
C198     C      0.609140000000     0.947730000000     0.757700000000     0.0133564  
C199     C      0.592850000000     0.994830000000     0.759390000000     0.0198632  
C200     C      0.605970000000     0.005650000000     0.767200000000    -0.0545847  
C201     C      0.605650000000     0.023950000000     0.764950000000     0.0116034  
C202     C      0.592330000000     0.031710000000     0.754670000000    -0.0720542  
C203     C      0.579190000000     0.020870000000     0.746960000000     0.0116871  
C204     C      0.579420000000     0.002670000000     0.749350000000    -0.0545922  
C205     C      0.467900000000     0.105090000000     0.724540000000    -0.056128   
C206     C      0.477880000000     0.097930000000     0.738420000000     0.0216506  
C207     C      0.468970000000     0.089770000000     0.752350000000    -0.0565237  
C208     C      0.450570000000     0.088850000000     0.752500000000     0.0126199  
C209     C      0.440560000000     0.096010000000     0.738690000000    -0.0729322  
C210     C      0.449390000000     0.104170000000     0.724690000000     0.012498   
C211     C      0.497520000000     0.098620000000     0.738470000000     0.0217119  
C212     C      0.507120000000     0.095030000000     0.723090000000    -0.0561075  
C213     C      0.525610000000     0.094110000000     0.723680000000     0.012605   
C214     C      0.534790000000     0.096720000000     0.739680000000    -0.072731   
C215     C      0.525220000000     0.100950000000     0.754870000000     0.0127365  
C216     C      0.506830000000     0.101950000000     0.754270000000    -0.0566907  
C217     C      0.376980000000     0.966890000000     0.726100000000    -0.0569118  
C218     C      0.377360000000     0.976110000000     0.742230000000     0.0223559  
C219     C      0.377910000000     0.966450000000     0.757960000000    -0.0563424  
C220     C      0.378590000000     0.948010000000     0.757500000000     0.0128451  
C221     C      0.378820000000     0.938920000000     0.741300000000    -0.073425   
C222     C      0.377810000000     0.948550000000     0.725640000000     0.012992   
C223     C      0.377860000000     0.995710000000     0.742450000000     0.0200109  
C224     C      0.387950000000     0.004770000000     0.729930000000    -0.054756   
C225     C      0.388390000000     0.023120000000     0.729740000000     0.011817   
C226     C      0.378890000000     0.032940000000     0.742170000000    -0.0722928  
C227     C      0.368940000000     0.023980000000     0.754870000000     0.0116004  
C228     C      0.368410000000     0.005510000000     0.754990000000    -0.0543188  
C229     C      0.469570000000     0.873810000000     0.746890000000    -0.0567609  
C230     C      0.477950000000     0.872240000000     0.730530000000     0.0217809  
C231     C      0.467610000000     0.872500000000     0.715060000000    -0.0565923  
C232     C      0.449210000000     0.874170000000     0.716000000000     0.0127603  
C233     C      0.440900000000     0.875890000000     0.732410000000    -0.0733398  
C234     C      0.451290000000     0.875680000000     0.747810000000     0.0129766  
C235     C      0.497480000000     0.870920000000     0.729890000000     0.0216578  
C236     C      0.507390000000     0.881780000000     0.718710000000    -0.0562817  
C237     C      0.525860000000     0.882320000000     0.720030000000     0.0127444  
C238     C      0.534720000000     0.871920000000     0.732490000000    -0.0729255  
C239     C      0.524830000000     0.860270000000     0.742870000000     0.0128117  
C240     C      0.506420000000     0.859810000000     0.741600000000    -0.0566121  
C241     C      0.725300000000     0.004480000000     0.379010000000    -0.0549198  
C242     C      0.741400000000     0.995610000000     0.381270000000     0.0200482  
C243     C      0.757120000000     0.005600000000     0.382720000000    -0.0543811  
C244     C      0.756620000000     0.024060000000     0.382620000000     0.0117478  
C245     C      0.740380000000     0.032820000000     0.381160000000    -0.0723326  
C246     C      0.724790000000     0.022820000000     0.379060000000     0.0120922  
C247     C      0.741450000000     0.976100000000     0.382970000000     0.0221734  
C248     C      0.728050000000     0.967690000000     0.392550000000    -0.056649   
C249     C      0.727580000000     0.949420000000     0.394020000000     0.0125263  
C250     C      0.740600000000     0.939010000000     0.386080000000    -0.0726436  
C251     C      0.754230000000     0.947340000000     0.376720000000     0.0122693  
C252     C      0.754640000000     0.965740000000     0.375170000000    -0.0562409  
C253     C      0.685240000000     0.103310000000     0.664200000000    -0.0564189  
C254     C      0.667320000000     0.100010000000     0.660240000000     0.0218067  
C255     C      0.662290000000     0.097050000000     0.642570000000    -0.0559246  
C256     C      0.675010000000     0.096670000000     0.629290000000     0.0126401  
C257     C      0.693000000000     0.099150000000     0.633450000000    -0.0729854  
C258     C      0.697930000000     0.102810000000     0.650980000000     0.0127876  
C259     C      0.654170000000     0.098720000000     0.674640000000     0.0217939  
C260     C      0.658710000000     0.090360000000     0.690480000000    -0.0563112  
C261     C      0.646440000000     0.088760000000     0.703980000000     0.0126001  
C262     C      0.629270000000     0.095380000000     0.701990000000    -0.0728961  
C263     C      0.624660000000     0.103760000000     0.686190000000     0.0125504  
C264     C      0.636990000000     0.105420000000     0.672640000000    -0.0560645  
C265     C      0.714610000000     0.094790000000     0.470620000000    -0.0559627  
C266     C      0.730280000000     0.094290000000     0.480720000000     0.0216832  
C267     C      0.746580000000     0.094220000000     0.471980000000    -0.0565345  
C268     C      0.747230000000     0.094010000000     0.453650000000     0.012692   
C269     C      0.731610000000     0.094040000000     0.443540000000    -0.072884   
C270     C      0.715270000000     0.094700000000     0.452180000000     0.0124411  
C271     C      0.729840000000     0.093250000000     0.500270000000     0.0217592  
C272     C      0.717820000000     0.103220000000     0.510190000000    -0.0560967  
C273     C      0.718030000000     0.102490000000     0.528630000000     0.0125445  
C274     C      0.730270000000     0.091810000000     0.537450000000    -0.0727873  
C275     C      0.742040000000     0.081660000000     0.527500000000     0.0127304  
C276     C      0.741790000000     0.082310000000     0.509170000000    -0.056594   
C277     C      0.685160000000     0.874810000000     0.669650000000    -0.0559967  
C278     C      0.667960000000     0.869310000000     0.664890000000     0.0216094  
C279     C      0.664480000000     0.864500000000     0.647260000000    -0.0558857  
C280     C      0.677810000000     0.865530000000     0.634630000000     0.0122894  
C281     C      0.694890000000     0.871360000000     0.639400000000    -0.0721023  
C282     C      0.698460000000     0.875770000000     0.657080000000     0.0121984  
C283     C      0.653680000000     0.869310000000     0.678250000000     0.0218891  
C284     C      0.657300000000     0.864310000000     0.695690000000    -0.0565021  
C285     C      0.644440000000     0.865910000000     0.708660000000     0.0130735  
C286     C      0.627590000000     0.872370000000     0.704480000000    -0.0727955  
C287     C      0.623680000000     0.876710000000     0.686940000000     0.0124795  
C288     C      0.636620000000     0.875250000000     0.673960000000    -0.0559595  
C289     C      0.746850000000     0.878210000000     0.515230000000    -0.0564765  
C290     C      0.730660000000     0.877450000000     0.506010000000     0.0216117  
C291     C      0.714900000000     0.876190000000     0.515640000000    -0.0559035  
C292     C      0.715340000000     0.876220000000     0.534100000000     0.0123861  
C293     C      0.731560000000     0.877590000000     0.543210000000    -0.0730286  
C294     C      0.747280000000     0.878360000000     0.533570000000     0.012742   
C295     C      0.730450000000     0.878520000000     0.486470000000     0.0217754  
C296     C      0.742210000000     0.890010000000     0.477970000000    -0.056559   
C297     C      0.742810000000     0.890610000000     0.459660000000     0.0127703  
C298     C      0.731550000000     0.879860000000     0.449330000000    -0.0729088  
C299     C      0.719430000000     0.868680000000     0.457740000000     0.0126192  
C300     C      0.718900000000     0.867990000000     0.476160000000    -0.0561218  
C301     C      0.724020000000     0.966550000000     0.608330000000    -0.0568875  
C302     C      0.739970000000     0.975870000000     0.606110000000     0.0222357  
C303     C      0.755790000000     0.966350000000     0.604750000000    -0.0562826  
C304     C      0.755510000000     0.947880000000     0.604870000000     0.0127468  
C305     C      0.739400000000     0.938660000000     0.606250000000    -0.0732452  
C306     C      0.723730000000     0.948200000000     0.608290000000     0.0131313  
C307     C      0.739770000000     0.995370000000     0.604330000000     0.0202105  
C308     C      0.726120000000     0.003360000000     0.594690000000    -0.0547893  
C309     C      0.725430000000     0.021600000000     0.593140000000     0.011841   
C310     C      0.738470000000     0.032400000000     0.601050000000    -0.0721617  
C311     C      0.752330000000     0.024500000000     0.610460000000     0.0118735  
C312     C      0.752970000000     0.006130000000     0.612100000000    -0.0550305  
C313     C      0.811830000000     0.186230000000     0.612390000000    -0.0561853  
C314     C      0.815990000000     0.168610000000     0.608490000000     0.021693   
C315     C      0.833610000000     0.164400000000     0.604600000000    -0.055773   
C316     C      0.846580000000     0.177620000000     0.603830000000     0.0123981  
C317     C      0.842160000000     0.195330000000     0.606840000000    -0.0720409  
C318     C      0.824740000000     0.199450000000     0.611490000000     0.01238    
C319     C      0.801790000000     0.154940000000     0.607370000000     0.0216954  
C320     C      0.804700000000     0.137630000000     0.613160000000    -0.0559687  
C321     C      0.791490000000     0.124700000000     0.611260000000     0.0123665  
C322     C      0.775090000000     0.128830000000     0.603570000000    -0.0724522  
C323     C      0.772120000000     0.146160000000     0.598000000000     0.0123678  
C324     C      0.785310000000     0.159020000000     0.599820000000    -0.0561654  
C325     C      0.965450000000     0.248210000000     0.593720000000    -0.0570536  
C326     C      0.974340000000     0.232350000000     0.596920000000     0.0225713  
C327     C      0.964310000000     0.217090000000     0.600370000000    -0.0564685  
C328     C      0.945790000000     0.217640000000     0.600230000000     0.0127047  
C329     C      0.936990000000     0.233440000000     0.596560000000    -0.0732143  
C330     C      0.947040000000     0.248720000000     0.593450000000     0.0128815  
C331     C      0.993990000000     0.231880000000     0.596200000000     0.0193657  
C332     C      0.002970000000     0.241730000000     0.583430000000    -0.054201   
C333     C      0.021370000000     0.242180000000     0.583080000000     0.0118286  
C334     C      0.031340000000     0.232640000000     0.595350000000    -0.0722002  
C335     C      0.022470000000     0.222360000000     0.607850000000     0.0114446  
C336     C      0.003950000000     0.222020000000     0.608300000000    -0.0537001  
C337     C      0.834550000000     0.165470000000     0.376670000000    -0.0558702  
C338     C      0.816850000000     0.169820000000     0.373030000000     0.0217973  
C339     C      0.812650000000     0.187560000000     0.370010000000    -0.0563465  
C340     C      0.825610000000     0.200710000000     0.371480000000     0.0128752  
C341     C      0.843130000000     0.196430000000     0.375780000000    -0.0726722  
C342     C      0.847580000000     0.178650000000     0.377950000000     0.0125867  
C343     C      0.802620000000     0.156150000000     0.373500000000     0.02171    
C344     C      0.805420000000     0.138960000000     0.367070000000    -0.0559677  
C345     C      0.792220000000     0.126000000000     0.368490000000     0.0123864  
C346     C      0.775950000000     0.130000000000     0.376300000000    -0.0723454  
C347     C      0.773050000000     0.147240000000     0.382410000000     0.012389   
C348     C      0.786220000000     0.160120000000     0.381090000000    -0.0561086  
C349     C      0.877190000000     0.227900000000     0.472770000000    -0.0564054  
C350     C      0.869290000000     0.242360000000     0.481190000000     0.0216088  
C351     C      0.863110000000     0.256350000000     0.470850000000    -0.0559879  
C352     C      0.864760000000     0.255820000000     0.452480000000     0.0121676  
C353     C      0.872680000000     0.241310000000     0.444150000000    -0.0724793  
C354     C      0.878820000000     0.227370000000     0.454520000000     0.0124464  
C355     C      0.868000000000     0.242740000000     0.500720000000     0.0217991  
C356     C      0.863970000000     0.227210000000     0.509860000000    -0.0567024  
C357     C      0.864790000000     0.226850000000     0.528200000000     0.0129603  
C358     C      0.869470000000     0.242050000000     0.537890000000    -0.0733417  
C359     C      0.872570000000     0.257850000000     0.528870000000     0.0127918  
C360     C      0.871890000000     0.258190000000     0.510440000000    -0.0560856  
C361     C      0.004720000000     0.250870000000     0.383780000000    -0.0540239  
C362     C      0.995600000000     0.234750000000     0.381770000000     0.0192297  
C363     C      0.005420000000     0.219260000000     0.379340000000    -0.0536429  
C364     C      0.023940000000     0.219880000000     0.379410000000     0.0113815  
C365     C      0.032970000000     0.235980000000     0.381950000000    -0.0719685  
C366     C      0.023140000000     0.251470000000     0.383950000000     0.0113705  
C367     C      0.975970000000     0.234260000000     0.382740000000     0.0225829  
C368     C      0.967270000000     0.244980000000     0.395050000000    -0.057002   
C369     C      0.948880000000     0.245260000000     0.395700000000     0.0129859  
C370     C      0.938640000000     0.234720000000     0.384170000000    -0.0732781  
C371     C      0.947240000000     0.223660000000     0.372100000000     0.0126909  
C372     C      0.965760000000     0.223440000000     0.371380000000    -0.0565455  
C373     C      0.097400000000     0.258610000000     0.470240000000    -0.0560026  
C374     C      0.099520000000     0.242700000000     0.479390000000     0.0217354  
C375     C      0.101630000000     0.227030000000     0.469660000000    -0.05652    
C376     C      0.100760000000     0.227070000000     0.451330000000     0.012913   
C377     C      0.097990000000     0.242820000000     0.442200000000    -0.072981   
C378     C      0.096700000000     0.258670000000     0.451790000000     0.0125957  
C379     C      0.098560000000     0.242120000000     0.498930000000     0.0217011  
C380     C      0.106380000000     0.255360000000     0.509590000000    -0.0560598  
C381     C      0.105190000000     0.254580000000     0.527990000000     0.0123979  
C382     C      0.096180000000     0.240560000000     0.536020000000    -0.0725878  
C383     C      0.088390000000     0.227390000000     0.525340000000     0.0125381  
C384     C      0.089500000000     0.228200000000     0.507070000000    -0.0563925  
C385     C      0.165150000000     0.139460000000     0.612030000000    -0.0558624  
C386     C      0.167740000000     0.156520000000     0.605360000000     0.021663   
C387     C      0.184020000000     0.160680000000     0.597560000000    -0.0560887  
C388     C      0.197330000000     0.148140000000     0.596370000000     0.0123178  
C389     C      0.194690000000     0.131050000000     0.602820000000    -0.0725661  
C390     C      0.178500000000     0.126830000000     0.610760000000     0.0122573  
C391     C      0.153470000000     0.169900000000     0.605940000000     0.0218432  
C392     C      0.135730000000     0.165120000000     0.602530000000    -0.0559189  
C393     C      0.122650000000     0.178010000000     0.601410000000     0.0125807  
C394     C      0.127080000000     0.195930000000     0.603540000000    -0.0726429  
C395     C      0.144640000000     0.200630000000     0.607610000000     0.0128933  
C396     C      0.157650000000     0.187770000000     0.608900000000    -0.0564284  
C397     C      0.286950000000     0.099450000000     0.663900000000    -0.0559548  
C398     C      0.303930000000     0.105590000000     0.659460000000     0.021615   
C399     C      0.307010000000     0.110840000000     0.642010000000    -0.0558361  
C400     C      0.293550000000     0.109570000000     0.629270000000     0.0123742  
C401     C      0.276720000000     0.103150000000     0.633740000000    -0.0721371  
C402     C      0.273510000000     0.098350000000     0.651240000000     0.0123356  
C403     C      0.318430000000     0.105690000000     0.672880000000     0.021972   
C404     C      0.314840000000     0.109570000000     0.690630000000    -0.0564126  
C405     C      0.327930000000     0.107790000000     0.703560000000     0.013045   
C406     C      0.345000000000     0.102370000000     0.699020000000    -0.0731908  
C407     C      0.348910000000     0.099330000000     0.681220000000     0.0128511  
C408     C      0.335730000000     0.100860000000     0.668280000000    -0.0560061  
C409     C      0.308320000000     0.872260000000     0.639550000000    -0.0560109  
C410     C      0.303690000000     0.867990000000     0.656920000000     0.0218717  
C411     C      0.285800000000     0.864730000000     0.660720000000    -0.0564517  
C412     C      0.272780000000     0.866570000000     0.647730000000     0.012927   
C413     C      0.277360000000     0.871490000000     0.630580000000    -0.0732535  
C414     C      0.295290000000     0.873920000000     0.626500000000     0.0128726  
C415     C      0.317240000000     0.868110000000     0.671250000000     0.0217047  
C416     C      0.334480000000     0.861990000000     0.668290000000    -0.0560265  
C417     C      0.347420000000     0.863310000000     0.681540000000     0.0125261  
C418     C      0.343370000000     0.870730000000     0.698020000000    -0.0725282  
C419     C      0.326050000000     0.876400000000     0.701120000000     0.0124346  
C420     C      0.313170000000     0.875180000000     0.687890000000    -0.0560885  
C421     C      0.218890000000     0.968220000000     0.608890000000    -0.0561392  
C422     C      0.232480000000     0.978500000000     0.601540000000     0.0219226  
C423     C      0.246440000000     0.969920000000     0.593000000000    -0.0565102  
C424     C      0.246920000000     0.951600000000     0.591950000000     0.0125196  
C425     C      0.233390000000     0.941310000000     0.599270000000    -0.0726182  
C426     C      0.219330000000     0.949780000000     0.607750000000     0.0122652  
C427     C      0.232220000000     0.998100000000     0.602470000000     0.02062    
C428     C      0.216410000000     0.007460000000     0.600040000000    -0.055166   
C429     C      0.216610000000     0.025910000000     0.599490000000     0.0123168  
C430     C      0.232620000000     0.035310000000     0.601230000000    -0.0723045  
C431     C      0.248290000000     0.025990000000     0.604250000000     0.0123407  
C432     C      0.248080000000     0.007640000000     0.604970000000    -0.055569   
C433     C      0.255170000000     0.878000000000     0.469030000000    -0.0560081  
C434     C      0.239360000000     0.878140000000     0.478660000000     0.0216581  
C435     C      0.223170000000     0.877980000000     0.469420000000    -0.056551   
C436     C      0.222760000000     0.878360000000     0.451080000000     0.0126899  
C437     C      0.238530000000     0.878740000000     0.441460000000    -0.0730369  
C438     C      0.254760000000     0.878260000000     0.450590000000     0.0125652  
C439     C      0.239540000000     0.879100000000     0.498220000000     0.0216598  
C440     C      0.251660000000     0.869350000000     0.508270000000    -0.0561113  
C441     C      0.251370000000     0.870160000000     0.526710000000     0.0124554  
C442     C      0.238940000000     0.880710000000     0.535410000000    -0.072801   
C443     C      0.227000000000     0.890590000000     0.525340000000     0.012498   
C444     C      0.227340000000     0.889840000000     0.507010000000    -0.056407   
C445     C      0.136480000000     0.169110000000     0.365800000000    -0.0558631  
C446     C      0.154130000000     0.172010000000     0.371190000000     0.0216346  
C447     C      0.159090000000     0.188840000000     0.377470000000    -0.0559971  
C448     C      0.146720000000     0.202300000000     0.378670000000     0.0123383  
C449     C      0.129010000000     0.199270000000     0.373750000000    -0.0721779  
C450     C      0.124030000000     0.182600000000     0.367110000000     0.0123298  
C451     C      0.167200000000     0.157470000000     0.371140000000     0.0217938  
C452     C      0.162240000000     0.140330000000     0.376160000000    -0.0558502  
C453     C      0.174910000000     0.127120000000     0.377840000000     0.0128933  
C454     C      0.192830000000     0.130820000000     0.374690000000    -0.0728722  
C455     C      0.197710000000     0.147730000000     0.369050000000     0.0128906  
C456     C      0.185040000000     0.160860000000     0.367180000000    -0.0563055  
C457     C      0.237050000000     0.006980000000     0.396980000000    -0.055264   
C458     C      0.227150000000     0.997960000000     0.383960000000     0.020506   
C459     C      0.216960000000     0.007770000000     0.372020000000    -0.0553059  
C460     C      0.217180000000     0.026240000000     0.372780000000     0.0123597  
C461     C      0.227600000000     0.035170000000     0.385460000000    -0.07325    
C462     C      0.237330000000     0.025320000000     0.397680000000     0.0123976  
C463     C      0.228030000000     0.978430000000     0.382690000000     0.0220086  
C464     C      0.244270000000     0.969950000000     0.385300000000    -0.0566374  
C465     C      0.245250000000     0.951630000000     0.385050000000     0.0126095  
C466     C      0.230040000000     0.941270000000     0.382030000000    -0.0729452  
C467     C      0.213830000000     0.949670000000     0.378910000000     0.0125303  
C468     C      0.212830000000     0.968100000000     0.379250000000    -0.0562973  
C469     C      0.255870000000     0.100370000000     0.470700000000    -0.0559792  
C470     C      0.240330000000     0.100950000000     0.480720000000     0.021627   
C471     C      0.224010000000     0.102710000000     0.471960000000    -0.0563892  
C472     C      0.223110000000     0.102950000000     0.453620000000     0.0124374  
C473     C      0.238530000000     0.101550000000     0.443560000000    -0.0723301  
C474     C      0.254970000000     0.100670000000     0.452260000000     0.0123919  
C475     C      0.240860000000     0.098850000000     0.500160000000     0.0216285  
C476     C      0.228170000000     0.088160000000     0.508380000000    -0.056405   
C477     C      0.228080000000     0.086430000000     0.526640000000     0.0122951  
C478     C      0.240720000000     0.095290000000     0.537170000000    -0.0725697  
C479     C      0.253700000000     0.105670000000     0.529000000000     0.01227    
C480     C      0.253790000000     0.107420000000     0.510640000000    -0.056103   
C481     C      0.968510000000     0.579070000000     0.754340000000    -0.0567315  
C482     C      0.976900000000     0.594400000000     0.760860000000     0.0222751  
C483     C      0.966470000000     0.608590000000     0.766470000000    -0.0569964  
C484     C      0.948010000000     0.607560000000     0.765250000000     0.0129187  
C485     C      0.939690000000     0.592440000000     0.758130000000    -0.0733667  
C486     C      0.950120000000     0.578130000000     0.752910000000     0.0130133  
C487     C      0.996460000000     0.595850000000     0.760610000000     0.0199349  
C488     C      0.006960000000     0.581740000000     0.766200000000    -0.0555831  
C489     C      0.025260000000     0.582140000000     0.763800000000     0.0125903  
C490     C      0.033390000000     0.596580000000     0.755600000000    -0.0728005  
C491     C      0.023000000000     0.611040000000     0.750770000000     0.0124502  
C492     C      0.004720000000     0.610710000000     0.753320000000    -0.0543421  
C493     C      0.868770000000     0.336020000000     0.669690000000    -0.0559624  
C494     C      0.867320000000     0.318150000000     0.674300000000     0.0218002  
C495     C      0.866110000000     0.313800000000     0.692210000000    -0.0564991  
C496     C      0.867200000000     0.326880000000     0.705210000000     0.0127991  
C497     C      0.869320000000     0.344650000000     0.700630000000    -0.0727045  
C498     C      0.869700000000     0.349150000000     0.682740000000     0.012585   
C499     C      0.868090000000     0.304000000000     0.660650000000     0.0216816  
C500     C      0.859750000000     0.305880000000     0.644150000000    -0.0560225  
C501     C      0.861150000000     0.292700000000     0.631220000000     0.0124481  
C502     C      0.870890000000     0.277380000000     0.634570000000    -0.0725705  
C503     C      0.879040000000     0.275440000000     0.651110000000     0.0124905  
C504     C      0.877710000000     0.288590000000     0.663950000000    -0.0561411  
C505     C      0.865470000000     0.467900000000     0.725520000000    -0.0560356  
C506     C      0.872040000000     0.477870000000     0.739890000000     0.0215743  
C507     C      0.879580000000     0.469020000000     0.754250000000    -0.0564353  
C508     C      0.880480000000     0.450690000000     0.754320000000     0.0123298  
C509     C      0.873930000000     0.440690000000     0.740010000000    -0.0726959  
C510     C      0.866380000000     0.449460000000     0.725590000000     0.0122288  
C511     C      0.871410000000     0.497440000000     0.740040000000     0.0216962  
C512     C      0.875680000000     0.507170000000     0.724960000000    -0.055996   
C513     C      0.876730000000     0.525600000000     0.725750000000     0.01258    
C514     C      0.873590000000     0.534600000000     0.741660000000    -0.0724316  
C515     C      0.868640000000     0.524900000000     0.756510000000     0.012618   
C516     C      0.867490000000     0.506560000000     0.755690000000    -0.0566151  
C517     C      0.094380000000     0.315550000000     0.688150000000    -0.0559682  
C518     C      0.100750000000     0.319680000000     0.671310000000     0.0216945  
C519     C      0.106250000000     0.337110000000     0.668040000000    -0.0558649  
C520     C      0.105020000000     0.350120000000     0.681150000000     0.0125536  
C521     C      0.098420000000     0.345940000000     0.697840000000    -0.0725956  
C522     C      0.093330000000     0.328480000000     0.701260000000     0.0126006  
C523     C      0.100950000000     0.305950000000     0.657170000000     0.0217682  
C524     C      0.104650000000     0.288300000000     0.661240000000    -0.0561883  
C525     C      0.103230000000     0.275120000000     0.648360000000     0.0128906  
C526     C      0.098370000000     0.279270000000     0.631020000000    -0.0726791  
C527     C      0.095400000000     0.296960000000     0.626690000000     0.0124906  
C528     C      0.096570000000     0.310150000000     0.639650000000    -0.0557465  
C529     C      0.965330000000     0.385500000000     0.730760000000    -0.0569653  
C530     C      0.974370000000     0.377220000000     0.744600000000     0.0224311  
C531     C      0.964540000000     0.370010000000     0.758480000000    -0.0566007  
C532     C      0.946040000000     0.370910000000     0.758360000000     0.0126149  
C533     C      0.937070000000     0.379090000000     0.744400000000    -0.0731226  
C534     C      0.946940000000     0.386390000000     0.730640000000     0.0126103  
C535     C      0.993990000000     0.376390000000     0.744390000000     0.0192765  
C536     C      0.002800000000     0.373040000000     0.728510000000    -0.0541976  
C537     C      0.021190000000     0.373880000000     0.727740000000     0.0115239  
C538     C      0.031270000000     0.377970000000     0.742870000000    -0.071784   
C539     C      0.022580000000     0.380590000000     0.758950000000     0.0115276  
C540     C      0.004090000000     0.379820000000     0.759700000000    -0.0537725  
C541     C      0.101730000000     0.468980000000     0.714360000000    -0.0563174  
C542     C      0.088930000000     0.479620000000     0.722390000000     0.0216087  
C543     C      0.075770000000     0.471600000000     0.732590000000    -0.0564149  
C544     C      0.075550000000     0.453390000000     0.734960000000     0.0125657  
C545     C      0.088400000000     0.442740000000     0.727080000000    -0.0726708  
C546     C      0.101390000000     0.450680000000     0.716580000000     0.0124403  
C547     C      0.089620000000     0.499110000000     0.720950000000     0.0217699  
C548     C      0.105590000000     0.508350000000     0.723760000000    -0.0563069  
C549     C      0.105790000000     0.526770000000     0.724700000000     0.0125897  
C550     C      0.090050000000     0.536290000000     0.722720000000    -0.0728238  
C551     C      0.074260000000     0.527060000000     0.718940000000     0.0127602  
C552     C      0.074040000000     0.508670000000     0.718130000000    -0.056739   
C553     C      0.156800000000     0.786980000000     0.368410000000    -0.0563221  
C554     C      0.153160000000     0.804900000000     0.371390000000     0.021808   
C555     C      0.135750000000     0.809740000000     0.375550000000    -0.0559153  
C556     C      0.122500000000     0.796910000000     0.377300000000     0.0126354  
C557     C      0.126420000000     0.778970000000     0.375120000000    -0.0726465  
C558     C      0.143630000000     0.774170000000     0.370370000000     0.0127685  
C559     C      0.167670000000     0.818290000000     0.371300000000     0.0216769  
C560     C      0.184410000000     0.814150000000     0.378270000000    -0.0560593  
C561     C      0.197810000000     0.826860000000     0.379260000000     0.0124313  
C562     C      0.194810000000     0.844110000000     0.373490000000    -0.0722798  
C563     C      0.178240000000     0.848250000000     0.366190000000     0.0123443  
C564     C      0.164820000000     0.835450000000     0.365060000000    -0.0559406  
C565     C      0.814000000000     0.785880000000     0.378130000000    -0.0563781  
C566     C      0.818160000000     0.803080000000     0.383920000000     0.0217409  
C567     C      0.835400000000     0.806740000000     0.390120000000    -0.0559907  
C568     C      0.847980000000     0.793350000000     0.391050000000     0.0122005  
C569     C      0.843550000000     0.776040000000     0.385870000000    -0.0726052  
C570     C      0.826510000000     0.772520000000     0.379150000000     0.0126708  
C571     C      0.804280000000     0.816840000000     0.384320000000     0.0215472  
C572     C      0.808100000000     0.834400000000     0.379810000000    -0.0559214  
C573     C      0.794970000000     0.847280000000     0.380680000000     0.0121657  
C574     C      0.777790000000     0.842850000000     0.386090000000    -0.0722683  
C575     C      0.773970000000     0.825290000000     0.390470000000     0.0121921  
C576     C      0.787040000000     0.812470000000     0.389630000000    -0.0560316  
C577     C      0.963500000000     0.756910000000     0.386880000000    -0.0566595  
C578     C      0.973160000000     0.742290000000     0.380970000000     0.0225929  
C579     C      0.963940000000     0.727080000000     0.375340000000    -0.0571747  
C580     C      0.945570000000     0.726140000000     0.376430000000     0.0130441  
C581     C      0.935940000000     0.740400000000     0.383130000000    -0.072785   
C582     C      0.945030000000     0.755970000000     0.387950000000     0.0128165  
C583     C      0.992780000000     0.742280000000     0.381740000000     0.0192254  
C584     C      0.002810000000     0.756910000000     0.376300000000    -0.0538401  
C585     C      0.021330000000     0.756570000000     0.377110000000     0.0113356  
C586     C      0.030100000000     0.741630000000     0.383500000000    -0.0722048  
C587     C      0.020020000000     0.727110000000     0.389050000000     0.0114653  
C588     C      0.001630000000     0.727430000000     0.388180000000    -0.0541427  
C589     C      0.155080000000     0.790480000000     0.611620000000    -0.0565409  
C590     C      0.151520000000     0.808000000000     0.606980000000     0.0219288  
C591     C      0.134100000000     0.812570000000     0.602460000000    -0.0562134  
C592     C      0.120710000000     0.799740000000     0.601830000000     0.0129769  
C593     C      0.124500000000     0.782080000000     0.605650000000    -0.0727305  
C594     C      0.141730000000     0.777660000000     0.610910000000     0.012873   
C595     C      0.166140000000     0.821160000000     0.605740000000     0.0215293  
C596     C      0.163810000000     0.838780000000     0.611080000000    -0.055967   
C597     C      0.177410000000     0.851210000000     0.609050000000     0.0122205  
C598     C      0.193600000000     0.846260000000     0.601620000000    -0.0723828  
C599     C      0.195980000000     0.828620000000     0.596490000000     0.0123011  
C600     C      0.182430000000     0.816240000000     0.598500000000    -0.0561236  
C601     C      0.088110000000     0.687350000000     0.661140000000    -0.056352   
C602     C      0.095170000000     0.670930000000     0.656370000000     0.0217051  
C603     C      0.100850000000     0.668320000000     0.638960000000    -0.0561647  
C604     C      0.099490000000     0.681860000000     0.626620000000     0.0125774  
C605     C      0.092360000000     0.698230000000     0.631440000000    -0.0729197  
C606     C      0.086730000000     0.700810000000     0.648830000000     0.012672   
C607     C      0.096220000000     0.656610000000     0.669550000000     0.0219916  
C608     C      0.101270000000     0.660450000000     0.687030000000    -0.0566195  
C609     C      0.100830000000     0.647390000000     0.699850000000     0.0134126  
C610     C      0.095380000000     0.630150000000     0.695490000000    -0.0738067  
C611     C      0.090950000000     0.626100000000     0.677890000000     0.0131641  
C612     C      0.091360000000     0.639210000000     0.665040000000    -0.0562902  
C613     C      0.091880000000     0.718390000000     0.509990000000    -0.0560135  
C614     C      0.099310000000     0.732640000000     0.500820000000     0.0216898  
C615     C      0.106350000000     0.746970000000     0.510490000000    -0.0565305  
C616     C      0.105140000000     0.747520000000     0.528790000000     0.0126262  
C617     C      0.096950000000     0.733700000000     0.537920000000    -0.0724161  
C618     C      0.090720000000     0.718920000000     0.528390000000     0.0125837  
C619     C      0.098570000000     0.733270000000     0.481280000000     0.0216276  
C620     C      0.102110000000     0.718300000000     0.470880000000    -0.0560861  
C621     C      0.100800000000     0.719060000000     0.452480000000     0.0123104  
C622     C      0.095790000000     0.734760000000     0.444190000000    -0.0726312  
C623     C      0.092380000000     0.749700000000     0.454610000000     0.0123676  
C624     C      0.093750000000     0.748960000000     0.472900000000    -0.0563012  
C625     C      0.812150000000     0.784840000000     0.615890000000    -0.056513   
C626     C      0.816050000000     0.802480000000     0.611800000000     0.021975   
C627     C      0.833330000000     0.806910000000     0.606610000000    -0.0561446  
C628     C      0.846220000000     0.793900000000     0.604990000000     0.01296    
C629     C      0.842060000000     0.776190000000     0.608420000000    -0.0731584  
C630     C      0.824980000000     0.771840000000     0.614140000000     0.013344   
C631     C      0.801880000000     0.815950000000     0.611940000000     0.0216304  
C632     C      0.784860000000     0.811610000000     0.605610000000    -0.0560158  
C633     C      0.771710000000     0.824350000000     0.604750000000     0.0123747  
C634     C      0.775260000000     0.841800000000     0.610090000000    -0.0724701  
C635     C      0.792150000000     0.846140000000     0.616740000000     0.0124311  
C636     C      0.805330000000     0.833340000000     0.617670000000    -0.0559966  
C637     C      0.869570000000     0.684830000000     0.667410000000    -0.0565193  
C638     C      0.873050000000     0.667100000000     0.663300000000     0.0218794  
C639     C      0.876190000000     0.662390000000     0.645650000000    -0.0561335  
C640     C      0.876410000000     0.675230000000     0.632530000000     0.01273    
C641     C      0.873550000000     0.693020000000     0.636810000000    -0.0728563  
C642     C      0.869870000000     0.697630000000     0.654340000000     0.0131075  
C643     C      0.874170000000     0.653820000000     0.677540000000     0.0216966  
C644     C      0.882380000000     0.658250000000     0.693670000000    -0.0563343  
C645     C      0.883660000000     0.645900000000     0.707100000000     0.0125344  
C646     C      0.876850000000     0.628770000000     0.704740000000    -0.0729926  
C647     C      0.868660000000     0.624240000000     0.688620000000     0.0124268  
C648     C      0.867330000000     0.636650000000     0.675150000000    -0.0560008  
C649     C      0.858030000000     0.724140000000     0.514770000000    -0.0560358  
C650     C      0.871360000000     0.714670000000     0.506170000000     0.0216943  
C651     C      0.884220000000     0.706110000000     0.516390000000    -0.0565494  
C652     C      0.884350000000     0.707830000000     0.534730000000     0.0128714  
C653     C      0.871630000000     0.718170000000     0.543240000000    -0.0730775  
C654     C      0.858170000000     0.725890000000     0.533110000000     0.0128421  
C655     C      0.872770000000     0.715090000000     0.486680000000     0.0219505  
C656     C      0.857650000000     0.713730000000     0.475810000000    -0.0567929  
C657     C      0.858990000000     0.715770000000     0.457570000000     0.0131099  
C658     C      0.875450000000     0.719350000000     0.449870000000    -0.0744986  
C659     C      0.890600000000     0.720230000000     0.460680000000     0.013386   
C660     C      0.889280000000     0.718100000000     0.478850000000    -0.0565601  
C661     C      0.964300000000     0.749390000000     0.614020000000    -0.0565872  
C662     C      0.972470000000     0.754970000000     0.598450000000     0.0221806  
C663     C      0.961810000000     0.759380000000     0.583920000000    -0.0571712  
C664     C      0.943440000000     0.757470000000     0.584670000000     0.0134729  
C665     C      0.935350000000     0.751020000000     0.599930000000    -0.0743857  
C666     C      0.945930000000     0.747390000000     0.614740000000     0.0133729  
C667     C      0.992020000000     0.754800000000     0.596920000000     0.0208798  
C668     C      0.002940000000     0.761120000000     0.610700000000    -0.055016   
C669     C      0.021340000000     0.759640000000     0.609660000000     0.0123844  
C670     C      0.029120000000     0.751650000000     0.594910000000    -0.0732915  
C671     C      0.018210000000     0.745710000000     0.580990000000     0.013322   
C672     C      0.999880000000     0.747320000000     0.581960000000    -0.056745   
C673     C      0.184700000000     0.372750000000     0.815980000000    -0.0562736  
C674     C      0.166830000000     0.374860000000     0.820420000000     0.0216111  
C675     C      0.162370000000     0.376490000000     0.838310000000    -0.0557208  
C676     C      0.175550000000     0.376700000000     0.851370000000     0.0123038  
C677     C      0.193450000000     0.375390000000     0.846780000000    -0.0722392  
C678     C      0.197850000000     0.373080000000     0.828990000000     0.0124651  
C679     C      0.153110000000     0.376270000000     0.806350000000     0.0217566  
C680     C      0.156770000000     0.385710000000     0.790940000000    -0.0562333  
C681     C      0.143990000000     0.387340000000     0.777710000000     0.0124841  
C682     C      0.127160000000     0.379660000000     0.779580000000    -0.0730728  
C683     C      0.123400000000     0.370250000000     0.794980000000     0.0126071  
C684     C      0.136250000000     0.368560000000     0.808230000000    -0.05605    
C685     C      0.240720000000     0.391630000000     0.971350000000    -0.0565046  
C686     C      0.230190000000     0.378960000000     0.979780000000     0.021815   
C687     C      0.219640000000     0.367490000000     0.969400000000    -0.0561786  
C688     C      0.219940000000     0.368470000000     0.950970000000     0.0123931  
C689     C      0.230820000000     0.380910000000     0.942630000000    -0.0730513  
C690     C      0.241080000000     0.392550000000     0.953050000000     0.0127192  
C691     C      0.230570000000     0.377790000000     0.999320000000     0.0213405  
C692     C      0.246630000000     0.380080000000     0.008550000000    -0.0561967  
C693     C      0.247060000000     0.380290000000     0.026900000000     0.0124046  
C694     C      0.231460000000     0.378040000000     0.036540000000    -0.0725947  
C695     C      0.215450000000     0.375120000000     0.027410000000     0.0123918  
C696     C      0.215000000000     0.375020000000     0.008950000000    -0.0556356  
C697     C      0.226620000000     0.505620000000     0.112220000000    -0.0563274  
C698     C      0.241690000000     0.496410000000     0.106780000000     0.0215603  
C699     C      0.256780000000     0.506050000000     0.101820000000    -0.0558452  
C700     C      0.256420000000     0.524500000000     0.101340000000     0.012363   
C701     C      0.240960000000     0.533590000000     0.105770000000    -0.0718941  
C702     C      0.226240000000     0.523980000000     0.111670000000     0.0123501  
C703     C      0.241030000000     0.476880000000     0.105070000000     0.0217299  
C704     C      0.255430000000     0.466400000000     0.110120000000    -0.056346   
C705     C      0.254560000000     0.448020000000     0.108170000000     0.0123548  
C706     C      0.239330000000     0.439830000000     0.101030000000    -0.0728863  
C707     C      0.225030000000     0.450360000000     0.095920000000     0.0124051  
C708     C      0.225870000000     0.468610000000     0.097900000000    -0.0564816  
C709     C      0.161130000000     0.600250000000     0.838500000000    -0.0558823  
C710     C      0.165610000000     0.604860000000     0.821190000000     0.0217274  
C711     C      0.183240000000     0.609500000000     0.817580000000    -0.0562471  
C712     C      0.196240000000     0.608680000000     0.830720000000     0.0125257  
C713     C      0.191880000000     0.603370000000     0.847810000000    -0.0722265  
C714     C      0.174130000000     0.599570000000     0.851690000000     0.012576   
C715     C      0.152210000000     0.603790000000     0.806740000000     0.0218209  
C716     C      0.156880000000     0.597020000000     0.790130000000    -0.0562625  
C717     C      0.144280000000     0.595270000000     0.776690000000     0.0128463  
C718     C      0.126650000000     0.600110000000     0.779530000000    -0.0727687  
C719     C      0.121940000000     0.607010000000     0.796040000000     0.0126108  
C720     C      0.134600000000     0.608860000000     0.809510000000    -0.0561928  
C721     C      0.255670000000     0.507700000000     0.876730000000    -0.0562659  
C722     C      0.240420000000     0.497910000000     0.872130000000     0.0218631  
C723     C      0.224980000000     0.506960000000     0.867380000000    -0.0568566  
C724     C      0.224450000000     0.525290000000     0.868270000000     0.0131691  
C725     C      0.239380000000     0.535060000000     0.873770000000    -0.0734943  
C726     C      0.255170000000     0.526140000000     0.877500000000     0.0129014  
C727     C      0.240030000000     0.478410000000     0.873590000000     0.0215963  
C728     C      0.254260000000     0.468030000000     0.867960000000    -0.0561532  
C729     C      0.253700000000     0.449670000000     0.869780000000     0.0124116  
C730     C      0.238930000000     0.441410000000     0.877340000000    -0.0728458  
C731     C      0.224760000000     0.451820000000     0.882960000000     0.0126441  
C732     C      0.225310000000     0.470050000000     0.881130000000    -0.0564684  
C733     C      0.240160000000     0.582390000000     0.971120000000    -0.0565151  
C734     C      0.225090000000     0.588690000000     0.979760000000     0.0217796  
C735     C      0.211230000000     0.595710000000     0.969610000000    -0.056203   
C736     C      0.212410000000     0.596280000000     0.951220000000     0.0124665  
C737     C      0.227460000000     0.589820000000     0.942660000000    -0.0729971  
C738     C      0.241300000000     0.582900000000     0.952830000000     0.0125561  
C739     C      0.224140000000     0.588020000000     0.999300000000     0.0216346  
C740     C      0.230910000000     0.573430000000     0.008340000000    -0.056612   
C741     C      0.231630000000     0.573350000000     0.026690000000     0.0131473  
C742     C      0.225440000000     0.587770000000     0.036490000000    -0.0739338  
C743     C      0.217930000000     0.602050000000     0.027540000000     0.0127825  
C744     C      0.217330000000     0.602190000000     0.009110000000    -0.0559668  
C745     C      0.136530000000     0.610970000000     0.168000000000    -0.0560574  
C746     C      0.154240000000     0.606600000000     0.171570000000     0.0217043  
C747     C      0.158950000000     0.601690000000     0.188790000000    -0.0560143  
C748     C      0.146240000000     0.600730000000     0.201960000000     0.0125571  
C749     C      0.128460000000     0.604490000000     0.198230000000    -0.0726809  
C750     C      0.123760000000     0.609860000000     0.181180000000     0.0126218  
C751     C      0.167600000000     0.606180000000     0.157290000000     0.0219088  
C752     C      0.163010000000     0.599890000000     0.140360000000    -0.0560974  
C753     C      0.175890000000     0.597960000000     0.127410000000     0.0130919  
C754     C      0.193660000000     0.602120000000     0.131150000000    -0.0726703  
C755     C      0.198190000000     0.608940000000     0.147850000000     0.0128612  
C756     C      0.185300000000     0.611050000000     0.160740000000    -0.0563837  
C757     C      0.096970000000     0.666730000000     0.338950000000    -0.0559383  
C758     C      0.097470000000     0.671470000000     0.321080000000     0.0217574  
C759     C      0.097950000000     0.689450000000     0.316790000000    -0.0563364  
C760     C      0.097160000000     0.702360000000     0.329940000000     0.0126273  
C761     C      0.096090000000     0.697630000000     0.347730000000    -0.0724513  
C762     C      0.096350000000     0.679700000000     0.352150000000     0.012492   
C763     C      0.096650000000     0.657820000000     0.306890000000     0.0217316  
C764     C      0.105720000000     0.641790000000     0.308490000000    -0.0560043  
C765     C      0.104590000000     0.628990000000     0.295120000000     0.0125993  
C766     C      0.094430000000     0.632000000000     0.279880000000    -0.0729893  
C767     C      0.085410000000     0.648010000000     0.278290000000     0.0125056  
C768     C      0.086450000000     0.660710000000     0.291640000000    -0.056153   
C769     C      0.865390000000     0.635560000000     0.314470000000    -0.0561503  
C770     C      0.872240000000     0.652750000000     0.312820000000     0.0216748  
C771     C      0.881150000000     0.657250000000     0.297310000000    -0.056189   
C772     C      0.883080000000     0.644940000000     0.283730000000     0.0125215  
C773     C      0.876240000000     0.627780000000     0.285350000000    -0.072493   
C774     C      0.867380000000     0.623180000000     0.300860000000     0.0123311  
C775     C      0.870520000000     0.665950000000     0.327290000000     0.0218658  
C776     C      0.867320000000     0.683730000000     0.323410000000    -0.0565569  
C777     C      0.867360000000     0.696470000000     0.336780000000     0.0131122  
C778     C      0.870490000000     0.691730000000     0.354350000000    -0.0728219  
C779     C      0.872900000000     0.673870000000     0.358380000000     0.013013   
C780     C      0.872950000000     0.661110000000     0.344970000000    -0.0562016  
C781     C      0.965210000000     0.576910000000     0.221130000000    -0.0572239  
C782     C      0.975060000000     0.592570000000     0.223260000000     0.02252    
C783     C      0.966070000000     0.608480000000     0.225970000000    -0.0566741  
C784     C      0.947650000000     0.608560000000     0.227490000000     0.0127099  
C785     C      0.937890000000     0.592750000000     0.226210000000    -0.0730921  
C786     C      0.946820000000     0.577000000000     0.222550000000     0.0129035  
C787     C      0.994650000000     0.592080000000     0.224140000000     0.0192545  
C788     C      0.003060000000     0.579240000000     0.234370000000    -0.0540916  
C789     C      0.021410000000     0.579260000000     0.236290000000     0.0115554  
C790     C      0.031820000000     0.592040000000     0.227910000000    -0.0720486  
C791     C      0.023500000000     0.604670000000     0.217340000000     0.0115257  
C792     C      0.005060000000     0.604760000000     0.215560000000    -0.0541783  
C793     C      0.863660000000     0.337790000000     0.313610000000    -0.0560083  
C794     C      0.868120000000     0.320180000000     0.309900000000     0.021853   
C795     C      0.873260000000     0.315710000000     0.292680000000    -0.0562003  
C796     C      0.874190000000     0.328500000000     0.279620000000     0.0128697  
C797     C      0.870240000000     0.346140000000     0.283480000000    -0.072808   
C798     C      0.864800000000     0.350650000000     0.300560000000     0.0127339  
C799     C      0.868160000000     0.306610000000     0.323980000000     0.0217489  
C800     C      0.873670000000     0.310930000000     0.341260000000    -0.0557097  
C801     C      0.875040000000     0.297880000000     0.354100000000     0.0125183  
C802     C      0.871160000000     0.280220000000     0.349870000000    -0.0727814  
C803     C      0.865200000000     0.275950000000     0.332790000000     0.0129243  
C804     C      0.863570000000     0.289000000000     0.320050000000    -0.0562104  
C805     C      0.864240000000     0.468470000000     0.265250000000    -0.0566139  
C806     C      0.878650000000     0.479200000000     0.260550000000     0.0216496  
C807     C      0.894080000000     0.471220000000     0.254260000000    -0.0563597  
C808     C      0.894900000000     0.452960000000     0.252170000000     0.0127233  
C809     C      0.880370000000     0.442240000000     0.256510000000    -0.0729584  
C810     C      0.865140000000     0.450140000000     0.263370000000     0.0127148  
C811     C      0.877370000000     0.498690000000     0.261040000000     0.0218505  
C812     C      0.862640000000     0.507090000000     0.253600000000    -0.0563182  
C813     C      0.862470000000     0.525410000000     0.251850000000     0.0132507  
C814     C      0.876960000000     0.535700000000     0.257660000000    -0.0733469  
C815     C      0.891240000000     0.527370000000     0.266000000000     0.0132893  
C816     C      0.891490000000     0.509040000000     0.267580000000    -0.0569469  
C817     C      0.107670000000     0.317020000000     0.289370000000    -0.0563435  
C818     C      0.104640000000     0.321070000000     0.307190000000     0.0218154  
C819     C      0.101050000000     0.338640000000     0.311930000000    -0.055911   
C820     C      0.099780000000     0.351660000000     0.299060000000     0.0126796  
C821     C      0.101930000000     0.347350000000     0.281190000000    -0.0728317  
C822     C      0.106230000000     0.329980000000     0.276520000000     0.0128081  
C823     C      0.104020000000     0.306830000000     0.320520000000     0.0216812  
C824     C      0.096210000000     0.290460000000     0.316190000000    -0.0559632  
C825     C      0.094700000000     0.277280000000     0.328770000000     0.01241    
C826     C      0.100830000000     0.280140000000     0.346080000000    -0.072519   
C827     C      0.108890000000     0.296380000000     0.350430000000     0.0124262  
C828     C      0.110480000000     0.309590000000     0.337770000000    -0.0559843  
C829     C      0.184600000000     0.368090000000     0.162410000000    -0.0563394  
C830     C      0.166730000000     0.370910000000     0.158110000000     0.0217591  
C831     C      0.162040000000     0.373470000000     0.140350000000    -0.0559345  
C832     C      0.175030000000     0.373970000000     0.127340000000     0.0125749  
C833     C      0.192960000000     0.372040000000     0.131850000000    -0.0728684  
C834     C      0.197560000000     0.368740000000     0.149460000000     0.0126941  
C835     C      0.153310000000     0.372280000000     0.172260000000     0.0215691  
C836     C      0.136090000000     0.365440000000     0.169910000000    -0.0558408  
C837     C      0.123440000000     0.367380000000     0.183140000000     0.0121381  
C838     C      0.127790000000     0.376190000000     0.198980000000    -0.0722643  
C839     C      0.145020000000     0.382890000000     0.201350000000     0.0122311  
C840     C      0.157580000000     0.381010000000     0.188160000000    -0.0560132  
C841     C      0.003680000000     0.381760000000     0.251860000000    -0.0541055  
C842     C      0.994650000000     0.376210000000     0.236510000000     0.0192343  
C843     C      0.004530000000     0.371770000000     0.221520000000    -0.0537547  
C844     C      0.023040000000     0.372840000000     0.221940000000     0.0111529  
C845     C      0.031980000000     0.378430000000     0.237340000000    -0.0717773  
C846     C      0.022070000000     0.382820000000     0.252270000000     0.0113949  
C847     C      0.974990000000     0.375490000000     0.236290000000     0.0225039  
C848     C      0.965820000000     0.369530000000     0.251140000000    -0.0570202  
C849     C      0.947440000000     0.370520000000     0.251850000000     0.0128685  
C850     C      0.937730000000     0.377370000000     0.237670000000    -0.0725983  
C851     C      0.946760000000     0.382590000000     0.222450000000     0.0127485  
C852     C      0.965240000000     0.381690000000     0.221780000000    -0.056444   
C853     C      0.103830000000     0.469740000000     0.257220000000    -0.0560911  
C854     C      0.095630000000     0.479650000000     0.243930000000     0.0215477  
C855     C      0.085980000000     0.470750000000     0.230640000000    -0.0564985  
C856     C      0.084780000000     0.452420000000     0.230420000000     0.0124774  
C857     C      0.093150000000     0.442480000000     0.243530000000    -0.0728856  
C858     C      0.102630000000     0.451310000000     0.257000000000     0.0124741  
C859     C      0.096970000000     0.499180000000     0.243740000000     0.0216992  
C860     C      0.095070000000     0.509210000000     0.259260000000    -0.0561927  
C861     C      0.094840000000     0.527640000000     0.258630000000     0.0126653  
C862     C      0.096490000000     0.536350000000     0.242460000000    -0.0727839  
C863     C      0.099080000000     0.526330000000     0.227090000000     0.0127729  
C864     C      0.099360000000     0.507990000000     0.227720000000    -0.0567554  
C865     C      0.593690000000     0.164770000000     0.841190000000    -0.056083   
C866     C      0.601820000000     0.168620000000     0.825060000000     0.0218562  
C867     C      0.607790000000     0.185940000000     0.822100000000    -0.0563102  
C868     C      0.605070000000     0.199210000000     0.834630000000     0.0128026  
C869     C      0.596460000000     0.195440000000     0.850490000000    -0.0730171  
C870     C      0.591100000000     0.178020000000     0.853790000000     0.0130306  
C871     C      0.603040000000     0.154920000000     0.810990000000     0.0216889  
C872     C      0.606430000000     0.137220000000     0.815120000000    -0.0561108  
C873     C      0.606020000000     0.124190000000     0.801970000000     0.0127731  
C874     C      0.602310000000     0.128590000000     0.784410000000    -0.0726885  
C875     C      0.599580000000     0.146340000000     0.780170000000     0.0126229  
C876     C      0.599870000000     0.159330000000     0.793290000000    -0.0560934  
C877     C      0.597460000000     0.220120000000     0.970570000000    -0.0562168  
C878     C      0.585090000000     0.229320000000     0.980780000000     0.021669   
C879     C      0.571370000000     0.238300000000     0.972190000000    -0.0566623  
C880     C      0.570440000000     0.238720000000     0.953860000000     0.012762   
C881     C      0.583150000000     0.230090000000     0.943640000000    -0.073151   
C882     C      0.596490000000     0.220500000000     0.952150000000     0.0127801  
C883     C      0.586760000000     0.230280000000     0.000280000000     0.0216924  
C884     C      0.591180000000     0.215390000000     0.010240000000    -0.0560812  
C885     C      0.592140000000     0.216460000000     0.028660000000     0.0123226  
C886     C      0.588720000000     0.232450000000     0.037410000000    -0.0726652  
C887     C      0.584670000000     0.247380000000     0.027400000000     0.0123829  
C888     C      0.583740000000     0.246320000000     0.009090000000    -0.0565044  
C889     C      0.332740000000     0.308330000000     0.101840000000    -0.0559448  
C890     C      0.315320000000     0.304000000000     0.106630000000     0.0217783  
C891     C      0.311320000000     0.286440000000     0.110970000000    -0.056356   
C892     C      0.324190000000     0.273410000000     0.109800000000     0.012617   
C893     C      0.341410000000     0.277650000000     0.104390000000    -0.0727013  
C894     C      0.345660000000     0.295300000000     0.100780000000     0.0128209  
C895     C      0.301150000000     0.317460000000     0.106100000000     0.0215093  
C896     C      0.304450000000     0.334950000000     0.111590000000    -0.0559381  
C897     C      0.291280000000     0.347710000000     0.110130000000     0.0122525  
C898     C      0.274540000000     0.343240000000     0.103180000000    -0.0720013  
C899     C      0.271140000000     0.325720000000     0.098010000000     0.0121101  
C900     C      0.284280000000     0.313010000000     0.099410000000    -0.0559144  
C901     C      0.463450000000     0.254250000000     0.107870000000    -0.056182   
C902     C      0.473570000000     0.243510000000     0.096720000000     0.0216857  
C903     C      0.464820000000     0.232790000000     0.084160000000    -0.0566453  
C904     C      0.446430000000     0.232320000000     0.083160000000     0.0127556  
C905     C      0.436260000000     0.242620000000     0.094620000000    -0.0732103  
C906     C      0.444930000000     0.253810000000     0.106830000000     0.0125962  
C907     C      0.493150000000     0.242930000000     0.098330000000     0.0216738  
C908     C      0.503310000000     0.258400000000     0.100650000000    -0.0562105  
C909     C      0.521820000000     0.257650000000     0.101070000000     0.0124651  
C910     C      0.530450000000     0.241420000000     0.099190000000    -0.0728794  
C911     C      0.520240000000     0.225950000000     0.097440000000     0.0125323  
C912     C      0.501840000000     0.226690000000     0.097060000000    -0.0565778  
C913     C      0.285760000000     0.316830000000     0.869120000000    -0.0561603  
C914     C      0.303180000000     0.320310000000     0.874900000000     0.0216809  
C915     C      0.307580000000     0.337470000000     0.880710000000    -0.0557737  
C916     C      0.294720000000     0.350600000000     0.881340000000     0.0125151  
C917     C      0.277160000000     0.346780000000     0.876380000000    -0.0728042  
C918     C      0.272880000000     0.329860000000     0.870000000000     0.0129297  
C919     C      0.316320000000     0.305830000000     0.875810000000     0.0218414  
C920     C      0.310920000000     0.288820000000     0.880790000000    -0.056229   
C921     C      0.323130000000     0.275250000000     0.882230000000     0.0131084  
C922     C      0.341120000000     0.278330000000     0.878940000000    -0.0727     
C923     C      0.346620000000     0.295260000000     0.873900000000     0.0126104  
C924     C      0.334330000000     0.308870000000     0.872280000000    -0.0561017  
C925     C      0.373610000000     0.157520000000     0.793820000000    -0.0561009  
C926     C      0.368670000000     0.151940000000     0.810690000000     0.0215625  
C927     C      0.365780000000     0.133860000000     0.813540000000    -0.0561884  
C928     C      0.367910000000     0.121640000000     0.799810000000     0.0123112  
C929     C      0.373050000000     0.127280000000     0.783020000000    -0.072217   
C930     C      0.375760000000     0.145350000000     0.780160000000     0.0122499  
C931     C      0.367220000000     0.165020000000     0.825270000000     0.021932   
C932     C      0.374340000000     0.161520000000     0.842040000000    -0.0562659  
C933     C      0.374730000000     0.174610000000     0.855130000000     0.0129126  
C934     C      0.368040000000     0.191460000000     0.851680000000    -0.0736613  
C935     C      0.360180000000     0.194680000000     0.835210000000     0.0134667  
C936     C      0.359750000000     0.181610000000     0.822170000000    -0.0567482  
C937     C      0.382470000000     0.214640000000     0.971940000000    -0.0561373  
C938     C      0.368050000000     0.222260000000     0.980640000000     0.0216379  
C939     C      0.354540000000     0.229920000000     0.970560000000    -0.0566039  
C940     C      0.355780000000     0.230680000000     0.952260000000     0.0126539  
C941     C      0.370600000000     0.223840000000     0.943610000000    -0.0729923  
C942     C      0.383750000000     0.215450000000     0.953590000000     0.0126943  
C943     C      0.367770000000     0.223500000000     0.000160000000     0.021749   
C944     C      0.372650000000     0.209150000000     0.010680000000    -0.0563278  
C945     C      0.373400000000     0.210890000000     0.029040000000     0.0125507  
C946     C      0.369490000000     0.227080000000     0.037190000000    -0.0725011  
C947     C      0.364280000000     0.241290000000     0.026680000000     0.0125819  
C948     C      0.363380000000     0.239500000000     0.008400000000    -0.056283   
C949     C      0.461980000000     0.258600000000     0.890570000000    -0.0562808  
C950     C      0.470290000000     0.252080000000     0.875390000000     0.0218561  
C951     C      0.459750000000     0.245220000000     0.861580000000    -0.0567105  
C952     C      0.441400000000     0.244090000000     0.863260000000     0.0129821  
C953     C      0.433170000000     0.249760000000     0.878810000000    -0.0735395  
C954     C      0.443610000000     0.257430000000     0.892280000000     0.0130919  
C955     C      0.489880000000     0.251070000000     0.874600000000     0.0217123  
C956     C      0.500650000000     0.265020000000     0.880800000000    -0.0564229  
C957     C      0.519060000000     0.263270000000     0.881460000000     0.0125888  
C958     C      0.527020000000     0.247460000000     0.876080000000    -0.0725636  
C959     C      0.516270000000     0.233740000000     0.869370000000     0.012622   
C960     C      0.497930000000     0.235540000000     0.868600000000    -0.056224   
C961     C      0.313470000000     0.871300000000     0.288880000000    -0.0563642  
C962     C      0.317550000000     0.873720000000     0.306850000000     0.0218098  
C963     C      0.335300000000     0.876690000000     0.311850000000    -0.0558548  
C964     C      0.348530000000     0.877780000000     0.299120000000     0.0124731  
C965     C      0.344250000000     0.876080000000     0.281150000000    -0.0725758  
C966     C      0.326630000000     0.872590000000     0.276190000000     0.0127747  
C967     C      0.303180000000     0.874050000000     0.320130000000     0.021674   
C968     C      0.286940000000     0.881990000000     0.316070000000    -0.0560301  
C969     C      0.273530000000     0.882860000000     0.328520000000     0.0123705  
C970     C      0.276040000000     0.875960000000     0.345440000000    -0.0723078  
C971     C      0.292190000000     0.867890000000     0.349560000000     0.0122917  
C972     C      0.305620000000     0.866910000000     0.337010000000    -0.0558131  
C973     C      0.330140000000     0.112060000000     0.309470000000    -0.0558791  
C974     C      0.314190000000     0.102490000000     0.307710000000     0.0216977  
C975     C      0.311460000000     0.092020000000     0.292540000000    -0.0561258  
C976     C      0.324280000000     0.091140000000     0.279490000000     0.0125578  
C977     C      0.340250000000     0.100560000000     0.281310000000    -0.0725036  
C978     C      0.343060000000     0.111080000000     0.296410000000     0.0125169  
C979     C      0.300510000000     0.102990000000     0.321670000000     0.0218113  
C980     C      0.305290000000     0.103000000000     0.339620000000    -0.0558728  
C981     C      0.292320000000     0.102070000000     0.352630000000     0.0125476  
C982     C      0.274340000000     0.100970000000     0.347930000000    -0.072724   
C983     C      0.269540000000     0.101510000000     0.330050000000     0.0127608  
C984     C      0.282450000000     0.102620000000     0.317090000000    -0.0563867  
C985     C      0.362830000000     0.160740000000     0.191010000000    -0.0562095  
C986     C      0.365230000000     0.156040000000     0.173250000000     0.0216358  
C987     C      0.367610000000     0.138180000000     0.168880000000    -0.0558407  
C988     C      0.368450000000     0.125450000000     0.182070000000     0.0123809  
C989     C      0.366970000000     0.130340000000     0.199890000000    -0.0719659  
C990     C      0.363740000000     0.148050000000     0.204180000000     0.0122944  
C991     C      0.366440000000     0.169870000000     0.159550000000     0.0216706  
C992     C      0.358910000000     0.167310000000     0.142700000000    -0.0561474  
C993     C      0.360800000000     0.180170000000     0.129720000000     0.012435   
C994     C      0.370280000000     0.195810000000     0.133330000000    -0.0726713  
C995     C      0.377650000000     0.198420000000     0.150200000000     0.0123986  
C996     C      0.375770000000     0.185620000000     0.163130000000    -0.0561979  
C997     C      0.384570000000     0.008000000000     0.251230000000    -0.0554613  
C998     C      0.380620000000     0.998890000000     0.235460000000     0.0204691  
C999     C      0.376200000000     0.008660000000     0.220400000000    -0.055094   
C1000    C      0.376010000000     0.027120000000     0.221090000000     0.0120088  
C1001    C      0.380300000000     0.036130000000     0.236820000000    -0.0724374  
C1002    C      0.384500000000     0.026360000000     0.251870000000     0.0120607  
C1003    C      0.381330000000     0.979300000000     0.234900000000     0.0222086  
C1004    C      0.394560000000     0.970460000000     0.244360000000    -0.0568216  
C1005    C      0.394810000000     0.952110000000     0.244830000000     0.0131609  
C1006    C      0.381970000000     0.942080000000     0.235690000000    -0.0735762  
C1007    C      0.369020000000     0.950820000000     0.225770000000     0.0128533  
C1008    C      0.368670000000     0.969270000000     0.225420000000    -0.0563316  
C1009    C      0.597140000000     0.138540000000     0.168010000000    -0.0557776  
C1010    C      0.601560000000     0.156040000000     0.172650000000     0.0217355  
C1011    C      0.605420000000     0.160040000000     0.190400000000    -0.0562207  
C1012    C      0.604030000000     0.147110000000     0.203290000000     0.012676   
C1013    C      0.598970000000     0.129810000000     0.198730000000    -0.0725289  
C1014    C      0.595930000000     0.125540000000     0.180910000000     0.0125426  
C1015    C      0.601060000000     0.170290000000     0.159310000000     0.0216724  
C1016    C      0.606730000000     0.167350000000     0.141930000000    -0.0559196  
C1017    C      0.605270000000     0.180590000000     0.129290000000     0.0123891  
C1018    C      0.598180000000     0.197060000000     0.133780000000    -0.0722998  
C1019    C      0.592850000000     0.200110000000     0.151200000000     0.0123196  
C1020    C      0.594200000000     0.186890000000     0.163770000000    -0.0560276  
C1021    C      0.635900000000     0.099860000000     0.312430000000    -0.0557806  
C1022    C      0.653610000000     0.103090000000     0.307820000000     0.021785   
C1023    C      0.657610000000     0.105990000000     0.290030000000    -0.0562841  
C1024    C      0.644430000000     0.104880000000     0.277090000000     0.0127914  
C1025    C      0.626860000000     0.101090000000     0.281640000000    -0.0726021  
C1026    C      0.622640000000     0.098960000000     0.299470000000     0.0124522  
C1027    C      0.668020000000     0.102460000000     0.321300000000     0.0217851  
C1028    C      0.665550000000     0.109010000000     0.338490000000    -0.0560051  
C1029    C      0.678960000000     0.107600000000     0.351220000000     0.0125272  
C1030    C      0.695130000000     0.099710000000     0.346990000000    -0.0723188  
C1031    C      0.697690000000     0.093450000000     0.329760000000     0.0124795  
C1032    C      0.684300000000     0.094730000000     0.317110000000    -0.0561541  
C1033    C      0.501920000000     0.097910000000     0.230660000000    -0.0561719  
C1034    C      0.493960000000     0.105190000000     0.245680000000     0.0215479  
C1035    C      0.504820000000     0.110690000000     0.259870000000    -0.0559839  
C1036    C      0.523230000000     0.108920000000     0.259000000000     0.0121754  
C1037    C      0.531080000000     0.101570000000     0.243950000000    -0.0723236  
C1038    C      0.520210000000     0.096170000000     0.229790000000     0.0123611  
C1039    C      0.474370000000     0.106460000000     0.246450000000     0.0218712  
C1040    C      0.464670000000     0.111010000000     0.231310000000    -0.0567128  
C1041    C      0.446260000000     0.110010000000     0.231140000000     0.0132276  
C1042    C      0.437050000000     0.104650000000     0.246160000000    -0.0735033  
C1043    C      0.446610000000     0.101090000000     0.261660000000     0.0128154  
C1044    C      0.465130000000     0.101940000000     0.261790000000    -0.0560474  
C1045    C      0.639480000000     0.863140000000     0.313100000000    -0.0562621  
C1046    C      0.656300000000     0.870970000000     0.311370000000     0.021849   
C1047    C      0.660070000000     0.880390000000     0.295970000000    -0.056267   
C1048    C      0.647340000000     0.882070000000     0.282700000000     0.01254    
C1049    C      0.630470000000     0.874450000000     0.284510000000    -0.072731   
C1050    C      0.626690000000     0.864870000000     0.299800000000     0.0126953  
C1051    C      0.669770000000     0.869920000000     0.325710000000     0.0216426  
C1052    C      0.664910000000     0.871740000000     0.343470000000    -0.0558567  
C1053    C      0.677800000000     0.872410000000     0.356790000000     0.0124874  
C1054    C      0.695820000000     0.871360000000     0.352610000000    -0.0727356  
C1055    C      0.700640000000     0.868850000000     0.334950000000     0.0124932  
C1056    C      0.687770000000     0.868070000000     0.321680000000    -0.0562288  
C1057    C      0.505990000000     0.876180000000     0.263340000000    -0.0560789  
C1058    C      0.496720000000     0.870500000000     0.248150000000     0.0218276  
C1059    C      0.506390000000     0.864980000000     0.233410000000    -0.0566917  
C1060    C      0.524800000000     0.866100000000     0.233440000000     0.0130238  
C1061    C      0.534030000000     0.872580000000     0.248290000000    -0.0734458  
C1062    C      0.524500000000     0.877160000000     0.263430000000     0.0127481  
C1063    C      0.477110000000     0.871520000000     0.247080000000     0.0216209  
C1064    C      0.466390000000     0.866970000000     0.261420000000    -0.0560775  
C1065    C      0.447970000000     0.868610000000     0.260290000000     0.0123222  
C1066    C      0.439960000000     0.874880000000     0.244820000000    -0.0724688  
C1067    C      0.450680000000     0.879260000000     0.230490000000     0.012446   
C1068    C      0.468990000000     0.877650000000     0.231610000000    -0.0563766  
C1069    C      0.587880000000     0.969370000000     0.252720000000    -0.0564953  
C1070    C      0.591620000000     0.977900000000     0.236800000000     0.0219815  
C1071    C      0.595950000000     0.967590000000     0.221990000000    -0.0561112  
C1072    C      0.596170000000     0.949160000000     0.223030000000     0.0123535  
C1073    C      0.592010000000     0.940720000000     0.238880000000    -0.0727916  
C1074    C      0.587990000000     0.951040000000     0.253720000000     0.0124294  
C1075    C      0.590670000000     0.997450000000     0.235810000000     0.0204282  
C1076    C      0.577350000000     0.006480000000     0.244890000000    -0.0550517  
C1077    C      0.576860000000     0.024830000000     0.244970000000     0.0122912  
C1078    C      0.589550000000     0.034670000000     0.235820000000    -0.0726807  
C1079    C      0.602570000000     0.025740000000     0.226250000000     0.0121169  
C1080    C      0.603160000000     0.007280000000     0.226280000000    -0.0550856  
C1081    C      0.805760000000     0.609640000000     0.143560000000    -0.0561805  
C1082    C      0.802640000000     0.605450000000     0.161280000000     0.0216121  
C1083    C      0.785430000000     0.600670000000     0.166300000000    -0.0559607  
C1084    C      0.771750000000     0.599690000000     0.153880000000     0.0123509  
C1085    C      0.774960000000     0.603420000000     0.136100000000    -0.0725259  
C1086    C      0.792040000000     0.608640000000     0.131100000000     0.0126543  
C1087    C      0.817340000000     0.605210000000     0.174410000000     0.0222028  
C1088    C      0.833880000000     0.598200000000     0.169960000000    -0.0564774  
C1089    C      0.847140000000     0.596450000000     0.182760000000     0.0136235  
C1090    C      0.844100000000     0.601610000000     0.200270000000    -0.0745897  
C1091    C      0.827810000000     0.609180000000     0.204590000000     0.0137802  
C1092    C      0.814600000000     0.611010000000     0.191800000000    -0.0568887  
C1093    C      0.806970000000     0.599550000000     0.844240000000    -0.0558469  
C1094    C      0.802810000000     0.604610000000     0.826900000000     0.0218281  
C1095    C      0.785180000000     0.608800000000     0.822770000000    -0.0562846  
C1096    C      0.771940000000     0.607140000000     0.835360000000     0.0130339  
C1097    C      0.776040000000     0.601560000000     0.852470000000    -0.0728572  
C1098    C      0.793730000000     0.598160000000     0.856920000000     0.0127217  
C1099    C      0.816550000000     0.604530000000     0.812940000000     0.0217748  
C1100    C      0.834200000000     0.609340000000     0.816750000000    -0.0560234  
C1101    C      0.847200000000     0.608070000000     0.803810000000     0.0128567  
C1102    C      0.842800000000     0.602140000000     0.786740000000    -0.0730728  
C1103    C      0.825110000000     0.597810000000     0.782790000000     0.0128383  
C1104    C      0.812190000000     0.598880000000     0.795730000000    -0.0560613  
C1105    C      0.749240000000     0.608510000000     0.973640000000    -0.0560926  
C1106    C      0.736860000000     0.599000000000     0.983610000000     0.0216111  
C1107    C      0.724310000000     0.588340000000     0.974750000000    -0.0564359  
C1108    C      0.723930000000     0.587380000000     0.956430000000     0.0125689  
C1109    C      0.736200000000     0.596920000000     0.946430000000    -0.0728619  
C1110    C      0.748920000000     0.607460000000     0.955190000000     0.0124393  
C1111    C      0.736880000000     0.599960000000     0.003190000000     0.0219025  
C1112    C      0.752790000000     0.599970000000     0.012940000000    -0.0560518  
C1113    C      0.752540000000     0.599460000000     0.031380000000     0.01269    
C1114    C      0.736390000000     0.598820000000     0.040360000000    -0.0731773  
C1115    C      0.720540000000     0.599370000000     0.030630000000     0.0128716  
C1116    C      0.720780000000     0.600040000000     0.012300000000    -0.0566903  
C1117    C      0.663120000000     0.336580000000     0.103890000000    -0.0558982  
C1118    C      0.667820000000     0.318880000000     0.106480000000     0.0218265  
C1119    C      0.685800000000     0.314780000000     0.108610000000    -0.0562113  
C1120    C      0.698800000000     0.327870000000     0.107400000000     0.0126659  
C1121    C      0.694130000000     0.345430000000     0.104230000000    -0.0725741  
C1122    C      0.676150000000     0.349730000000     0.102850000000     0.0125666  
C1123    C      0.654170000000     0.304610000000     0.105980000000     0.0215896  
C1124    C      0.637340000000     0.307090000000     0.113300000000    -0.055715   
C1125    C      0.624380000000     0.293840000000     0.112030000000     0.0122046  
C1126    C      0.628030000000     0.277800000000     0.103470000000    -0.0722356  
C1127    C      0.644910000000     0.275220000000     0.096410000000     0.0123042  
C1128    C      0.657780000000     0.288460000000     0.097580000000    -0.0559144  
C1129    C      0.785410000000     0.374580000000     0.163970000000    -0.0562111  
C1130    C      0.803390000000     0.376120000000     0.159640000000     0.0215945  
C1131    C      0.808020000000     0.377270000000     0.141770000000    -0.0557504  
C1132    C      0.794920000000     0.377520000000     0.128630000000     0.0123253  
C1133    C      0.776940000000     0.376720000000     0.133110000000    -0.0725017  
C1134    C      0.772360000000     0.374960000000     0.150890000000     0.0125908  
C1135    C      0.817070000000     0.377380000000     0.173810000000     0.0217801  
C1136    C      0.813710000000     0.387160000000     0.189210000000    -0.0563274  
C1137    C      0.826360000000     0.388480000000     0.202630000000     0.0125289  
C1138    C      0.842780000000     0.380160000000     0.200990000000    -0.0730127  
C1139    C      0.846280000000     0.370460000000     0.185580000000     0.0125052  
C1140    C      0.833540000000     0.369070000000     0.172120000000    -0.0560307  
C1141    C      0.745790000000     0.507760000000     0.102000000000    -0.0565597  
C1142    C      0.729690000000     0.498370000000     0.101670000000     0.021752   
C1143    C      0.713790000000     0.507850000000     0.101870000000    -0.0559718  
C1144    C      0.714030000000     0.526320000000     0.101830000000     0.0124567  
C1145    C      0.730190000000     0.535600000000     0.101510000000    -0.0729802  
C1146    C      0.746030000000     0.526110000000     0.101820000000     0.0128323  
C1147    C      0.729730000000     0.478800000000     0.100430000000     0.0216546  
C1148    C      0.742090000000     0.470320000000     0.089640000000    -0.0564634  
C1149    C      0.742730000000     0.452000000000     0.088710000000     0.0126065  
C1150    C      0.730920000000     0.441620000000     0.098420000000    -0.0727634  
C1151    C      0.718290000000     0.450000000000     0.108980000000     0.0123528  
C1152    C      0.717710000000     0.468440000000     0.109990000000    -0.055923   
C1153    C      0.802190000000     0.362580000000     0.838000000000    -0.0558872  
C1154    C      0.799810000000     0.369770000000     0.821130000000     0.0216268  
C1155    C      0.783710000000     0.378040000000     0.817150000000    -0.0561232  
C1156    C      0.770440000000     0.379270000000     0.829710000000     0.0124355  
C1157    C      0.772930000000     0.372390000000     0.846650000000    -0.0724568  
C1158    C      0.788890000000     0.363900000000     0.850640000000     0.0124488  
C1159    C      0.814170000000     0.369350000000     0.807860000000     0.0218353  
C1160    C      0.831920000000     0.372240000000     0.812890000000    -0.0559576  
C1161    C      0.845140000000     0.373540000000     0.800170000000     0.0125507  
C1162    C      0.840830000000     0.372140000000     0.782180000000    -0.0726174  
C1163    C      0.823230000000     0.368590000000     0.777190000000     0.0127889  
C1164    C      0.810080000000     0.367100000000     0.789870000000    -0.0564318  
C1165    C      0.659830000000     0.336270000000     0.874230000000    -0.0557594  
C1166    C      0.663950000000     0.318240000000     0.874060000000     0.0215348  
C1167    C      0.681800000000     0.313290000000     0.873400000000    -0.0562274  
C1168    C      0.695230000000     0.326020000000     0.873810000000     0.0123013  
C1169    C      0.691130000000     0.344010000000     0.874800000000    -0.0721578  
C1170    C      0.673290000000     0.349040000000     0.874580000000     0.0123233  
C1171    C      0.649850000000     0.304600000000     0.875670000000     0.0217669  
C1172    C      0.652410000000     0.290140000000     0.886810000000    -0.0563928  
C1173    C      0.639200000000     0.277400000000     0.888740000000     0.0125728  
C1174    C      0.623050000000     0.278790000000     0.879610000000    -0.0729018  
C1175    C      0.620400000000     0.293230000000     0.868460000000     0.0125842  
C1176    C      0.633670000000     0.306040000000     0.866530000000    -0.0561932  
C1177    C      0.754320000000     0.376040000000     0.970610000000    -0.0561439  
C1178    C      0.738620000000     0.374430000000     0.980300000000     0.0218637  
C1179    C      0.722490000000     0.372500000000     0.971120000000    -0.0567401  
C1180    C      0.721930000000     0.373020000000     0.952790000000     0.0129498  
C1181    C      0.737500000000     0.375290000000     0.943110000000    -0.0733536  
C1182    C      0.753770000000     0.376410000000     0.952160000000     0.0126902  
C1183    C      0.738750000000     0.375710000000     0.999860000000     0.0214072  
C1184    C      0.751920000000     0.367600000000     0.010080000000    -0.0557708  
C1185    C      0.751660000000     0.368870000000     0.028520000000     0.0120888  
C1186    C      0.738220000000     0.378280000000     0.037020000000    -0.0725077  
C1187    C      0.725190000000     0.386480000000     0.026760000000     0.0124152  
C1188    C      0.725490000000     0.385270000000     0.008450000000    -0.0561891  
C1189    C      0.745670000000     0.467600000000     0.882940000000    -0.056582   
C1190    C      0.729620000000     0.476700000000     0.881520000000     0.0217377  
C1191    C      0.713780000000     0.466920000000     0.879890000000    -0.0560064  
C1192    C      0.714010000000     0.448460000000     0.880210000000     0.0125567  
C1193    C      0.730050000000     0.439480000000     0.882250000000    -0.0729303  
C1194    C      0.745870000000     0.449250000000     0.883410000000     0.012664   
C1195    C      0.729560000000     0.496290000000     0.882440000000     0.0216826  
C1196    C      0.741110000000     0.505180000000     0.894150000000    -0.0564355  
C1197    C      0.741600000000     0.523520000000     0.894920000000     0.0126329  
C1198    C      0.730430000000     0.533520000000     0.884130000000    -0.0728952  
C1199    C      0.718630000000     0.524740000000     0.872590000000     0.0123969  
C1200    C      0.718210000000     0.506270000000     0.871730000000    -0.0560161  
C1201    C      0.307060000000     0.638070000000     0.100290000000    -0.0558355  
C1202    C      0.302280000000     0.655920000000     0.099440000000     0.0216958  
C1203    C      0.284230000000     0.660190000000     0.099140000000    -0.056276   
C1204    C      0.271300000000     0.646980000000     0.098970000000     0.0126867  
C1205    C      0.276060000000     0.629150000000     0.099300000000    -0.0727349  
C1206    C      0.294060000000     0.624800000000     0.100270000000     0.0122554  
C1207    C      0.315930000000     0.670100000000     0.098210000000     0.0218503  
C1208    C      0.331780000000     0.669430000000     0.108010000000    -0.0561078  
C1209    C      0.344380000000     0.683000000000     0.106840000000     0.0126985  
C1210    C      0.341340000000     0.697520000000     0.095890000000    -0.0731795  
C1211    C      0.325590000000     0.698100000000     0.086010000000     0.0127717  
C1212    C      0.313090000000     0.684550000000     0.087090000000    -0.0563914  
C1213    C      0.371320000000     0.789590000000     0.162500000000    -0.0562113  
C1214    C      0.366030000000     0.806770000000     0.158250000000     0.0218795  
C1215    C      0.361100000000     0.810360000000     0.140740000000    -0.0561273  
C1216    C      0.362020000000     0.797240000000     0.127720000000     0.012762   
C1217    C      0.367740000000     0.780230000000     0.131970000000    -0.0729278  
C1218    C      0.372070000000     0.776470000000     0.149540000000     0.0127913  
C1219    C      0.366560000000     0.820990000000     0.171910000000     0.021793   
C1220    C      0.362400000000     0.817280000000     0.189520000000    -0.0562704  
C1221    C      0.364630000000     0.830120000000     0.202660000000     0.0128615  
C1222    C      0.370820000000     0.847050000000     0.198470000000    -0.0728152  
C1223    C      0.374240000000     0.851060000000     0.180810000000     0.0128171  
C1224    C      0.372240000000     0.838140000000     0.167680000000    -0.0558744  
C1225    C      0.365690000000     0.788430000000     0.817770000000    -0.0566496  
C1226    C      0.370890000000     0.805990000000     0.821080000000     0.022016   
C1227    C      0.376480000000     0.810800000000     0.838190000000    -0.0561777  
C1228    C      0.377370000000     0.798220000000     0.851520000000     0.0130154  
C1229    C      0.372780000000     0.780560000000     0.847970000000    -0.0735333  
C1230    C      0.366700000000     0.775860000000     0.831030000000     0.0135149  
C1231    C      0.371340000000     0.818960000000     0.806510000000     0.0215925  
C1232    C      0.377190000000     0.813820000000     0.789730000000    -0.0561665  
C1233    C      0.378420000000     0.826030000000     0.776170000000     0.0124431  
C1234    C      0.373930000000     0.843730000000     0.779050000000    -0.0725467  
C1235    C      0.367820000000     0.848890000000     0.795720000000     0.0124904  
C1236    C      0.366520000000     0.836630000000     0.809310000000    -0.0559351  
C1237    C      0.310510000000     0.689210000000     0.875340000000    -0.0564598  
C1238    C      0.314840000000     0.671390000000     0.877590000000     0.021889   
C1239    C      0.332660000000     0.666910000000     0.880270000000    -0.0561478  
C1240    C      0.345770000000     0.680020000000     0.881200000000     0.012792   
C1241    C      0.341300000000     0.697860000000     0.879500000000    -0.0730483  
C1242    C      0.323570000000     0.702290000000     0.876330000000     0.0131651  
C1243    C      0.300690000000     0.657680000000     0.877890000000     0.0217153  
C1244    C      0.284710000000     0.661040000000     0.886570000000    -0.0562909  
C1245    C      0.271500000000     0.648130000000     0.887340000000     0.0125924  
C1246    C      0.273950000000     0.631510000000     0.879500000000    -0.0728769  
C1247    C      0.289850000000     0.628130000000     0.870700000000     0.0126473  
C1248    C      0.303090000000     0.641090000000     0.869910000000    -0.0560454  
C1249    C      0.391350000000     0.764140000000     0.969420000000    -0.0569795  
C1250    C      0.376400000000     0.759270000000     0.979160000000     0.0219569  
C1251    C      0.360940000000     0.753960000000     0.970120000000    -0.0563561  
C1252    C      0.360770000000     0.752540000000     0.951740000000     0.0129885  
C1253    C      0.376030000000     0.756520000000     0.942070000000    -0.0735927  
C1254    C      0.391140000000     0.762850000000     0.951060000000     0.0131897  
C1255    C      0.377450000000     0.758140000000     0.998630000000     0.0213119  
C1256    C      0.391970000000     0.749910000000     0.006630000000    -0.0559619  
C1257    C      0.392490000000     0.747420000000     0.024810000000     0.0124783  
C1258    C      0.378570000000     0.753250000000     0.035430000000    -0.0726077  
C1259    C      0.364260000000     0.761940000000     0.027540000000     0.0124539  
C1260    C      0.363640000000     0.764250000000     0.009270000000    -0.0562048  
C1261    C      0.608550000000     0.808000000000     0.144870000000    -0.0560107  
C1262    C      0.602840000000     0.805500000000     0.162250000000     0.0216583  
C1263    C      0.594860000000     0.789350000000     0.166650000000    -0.0561887  
C1264    C      0.592520000000     0.776090000000     0.154000000000     0.0122339  
C1265    C      0.598040000000     0.778640000000     0.136590000000    -0.0722378  
C1266    C      0.606180000000     0.794690000000     0.132150000000     0.0121988  
C1267    C      0.604450000000     0.819800000000     0.175710000000     0.0216913  
C1268    C      0.608560000000     0.815800000000     0.193310000000    -0.0562582  
C1269    C      0.607950000000     0.828800000000     0.206400000000     0.0124887  
C1270    C      0.603350000000     0.846160000000     0.202180000000    -0.072208   
C1271    C      0.600200000000     0.850420000000     0.184460000000     0.0126062  
C1272    C      0.600700000000     0.837360000000     0.171360000000    -0.0559589  
C1273    C      0.655780000000     0.688020000000     0.117200000000    -0.0564558  
C1274    C      0.651880000000     0.670240000000     0.113360000000     0.0218636  
C1275    C      0.634350000000     0.665480000000     0.108980000000    -0.0559079  
C1276    C      0.621240000000     0.678320000000     0.107690000000     0.0127133  
C1277    C      0.625450000000     0.696170000000     0.110600000000    -0.0729585  
C1278    C      0.642750000000     0.700840000000     0.115720000000     0.0129752  
C1279    C      0.666280000000     0.657020000000     0.112680000000     0.0216357  
C1280    C      0.682810000000     0.661650000000     0.105670000000    -0.0560621  
C1281    C      0.696110000000     0.649160000000     0.103980000000     0.0123779  
C1282    C      0.693210000000     0.631660000000     0.109130000000    -0.0723543  
C1283    C      0.676830000000     0.627000000000     0.116430000000     0.0123852  
C1284    C      0.663500000000     0.639560000000     0.118210000000    -0.0559476  
C1285    C      0.502070000000     0.748460000000     0.093300000000    -0.0565783  
C1286    C      0.492860000000     0.734630000000     0.101440000000     0.0216232  
C1287    C      0.502530000000     0.720830000000     0.108980000000    -0.0561541  
C1288    C      0.521050000000     0.720980000000     0.108540000000     0.012402   
C1289    C      0.530190000000     0.734910000000     0.100490000000    -0.0727773  
C1290    C      0.520490000000     0.748610000000     0.092860000000     0.0124183  
C1291    C      0.473220000000     0.734790000000     0.101850000000     0.0217247  
C1292    C      0.464300000000     0.750640000000     0.105080000000    -0.05666    
C1293    C      0.445910000000     0.751300000000     0.104060000000     0.0126962  
C1294    C      0.435950000000     0.736100000000     0.099870000000    -0.0729127  
C1295    C      0.444770000000     0.720080000000     0.097290000000     0.0128789  
C1296    C      0.463250000000     0.719420000000     0.098270000000    -0.0563142  
C1297    C      0.589840000000     0.788000000000     0.823380000000    -0.0562349  
C1298    C      0.597380000000     0.804330000000     0.828320000000     0.0215448  
C1299    C      0.602950000000     0.806880000000     0.845890000000    -0.0560974  
C1300    C      0.601070000000     0.793370000000     0.858190000000     0.0124656  
C1301    C      0.593530000000     0.777070000000     0.853160000000    -0.0730512  
C1302    C      0.587970000000     0.774550000000     0.835620000000     0.0124393  
C1303    C      0.598990000000     0.818600000000     0.815130000000     0.0220528  
C1304    C      0.603840000000     0.814590000000     0.797740000000    -0.0568399  
C1305    C      0.603640000000     0.827550000000     0.784830000000     0.0136548  
C1306    C      0.598700000000     0.844870000000     0.789000000000    -0.0732124  
C1307    C      0.594650000000     0.849130000000     0.806540000000     0.0131233  
C1308    C      0.594770000000     0.836110000000     0.819490000000    -0.0563313  
C1309    C      0.656140000000     0.685130000000     0.882330000000    -0.0562823  
C1310    C      0.651600000000     0.668100000000     0.876250000000     0.0218891  
C1311    C      0.633930000000     0.664590000000     0.871300000000    -0.0560904  
C1312    C      0.621070000000     0.677660000000     0.872830000000     0.0128081  
C1313    C      0.625650000000     0.694550000000     0.879170000000    -0.0729381  
C1314    C      0.643350000000     0.698200000000     0.883660000000     0.0128924  
C1315    C      0.665170000000     0.653980000000     0.875860000000     0.021701   
C1316    C      0.682850000000     0.658010000000     0.871770000000    -0.0561817  
C1317    C      0.695950000000     0.645250000000     0.873190000000     0.0129253  
C1318    C      0.691660000000     0.628060000000     0.878420000000    -0.0726713  
C1319    C      0.673920000000     0.623720000000     0.881690000000     0.0126137  
C1320    C      0.660820000000     0.636570000000     0.880540000000    -0.0557258  
C1321    C      0.500050000000     0.727310000000     0.901100000000    -0.0564026  
C1322    C      0.491980000000     0.719650000000     0.886130000000     0.0216616  
C1323    C      0.502690000000     0.713520000000     0.872380000000    -0.0565405  
C1324    C      0.521110000000     0.715250000000     0.873500000000     0.01265    
C1325    C      0.529110000000     0.723380000000     0.888280000000    -0.0731805  
C1326    C      0.518400000000     0.729230000000     0.902130000000     0.0127263  
C1327    C      0.472410000000     0.719090000000     0.884620000000     0.0219003  
C1328    C      0.462080000000     0.714110000000     0.899070000000    -0.056993   
C1329    C      0.443710000000     0.715790000000     0.898490000000     0.0132843  
C1330    C      0.435290000000     0.722630000000     0.883500000000    -0.0736576  
C1331    C      0.445530000000     0.726780000000     0.868720000000     0.0131631  
C1332    C      0.463910000000     0.724970000000     0.869250000000    -0.0565328  
C1333    C      0.601660000000     0.725130000000     0.974760000000    -0.0565204  
C1334    C      0.596980000000     0.740420000000     0.984130000000     0.0215444  
C1335    C      0.591940000000     0.755430000000     0.974630000000    -0.0559336  
C1336    C      0.590930000000     0.754890000000     0.956210000000     0.012577   
C1337    C      0.594860000000     0.739310000000     0.946970000000    -0.0724592  
C1338    C      0.600520000000     0.724550000000     0.956430000000     0.0126235  
C1339    C      0.596380000000     0.740250000000     0.003690000000     0.0217073  
C1340    C      0.589760000000     0.725330000000     0.012360000000    -0.0564103  
C1341    C      0.588800000000     0.725000000000     0.030670000000     0.0122947  
C1342    C      0.594340000000     0.739610000000     0.040830000000    -0.0725446  
C1343    C      0.601000000000     0.754570000000     0.032260000000     0.0121773  
C1344    C      0.602000000000     0.754890000000     0.013840000000    -0.0560515  
Cd1      Cd     0.585910000000     0.734180000000     0.890440000000     0.507379   
Cd2      Cd     0.587680000000     0.737200000000     0.097730000000     0.509019   
Cd3      Cd     0.380550000000     0.739690000000     0.887270000000     0.506968   
Cd4      Cd     0.379200000000     0.741060000000     0.091460000000     0.507509   
Cd5      Cd     0.732920000000     0.382280000000     0.886270000000     0.508684   
Cd6      Cd     0.735250000000     0.384520000000     0.094030000000     0.508763   
Cd7      Cd     0.733640000000     0.590720000000     0.889360000000     0.508688   
Cd8      Cd     0.733480000000     0.592810000000     0.097300000000     0.509167   
Cd9      Cd     0.590610000000     0.883450000000     0.243870000000     0.507814   
Cd10     Cd     0.587640000000     0.092030000000     0.240070000000     0.508354   
Cd11     Cd     0.380530000000     0.093480000000     0.241300000000     0.508392   
Cd12     Cd     0.383430000000     0.884810000000     0.240320000000     0.508285   
Cd13     Cd     0.378000000000     0.235460000000     0.887890000000     0.506462   
Cd14     Cd     0.378910000000     0.235820000000     0.093320000000     0.507584   
Cd15     Cd     0.582860000000     0.237940000000     0.886770000000     0.507104   
Cd16     Cd     0.587640000000     0.237300000000     0.094600000000     0.509239   
Cd17     Cd     0.089250000000     0.385240000000     0.240310000000     0.508851   
Cd18     Cd     0.881270000000     0.385990000000     0.244000000000     0.506865   
Cd19     Cd     0.882560000000     0.590460000000     0.241860000000     0.506481   
Cd20     Cd     0.088710000000     0.592860000000     0.237710000000     0.508241   
Cd21     Cd     0.233400000000     0.590970000000     0.885580000000     0.508297   
Cd22     Cd     0.234590000000     0.589130000000     0.093390000000     0.507197   
Cd23     Cd     0.234330000000     0.382840000000     0.093750000000     0.508597   
Cd24     Cd     0.235310000000     0.384790000000     0.885540000000     0.508607   
Cd25     Cd     0.879930000000     0.734500000000     0.597890000000     0.506805   
Cd26     Cd     0.085740000000     0.740840000000     0.593720000000     0.506923   
Cd27     Cd     0.879960000000     0.732450000000     0.394050000000     0.506681   
Cd28     Cd     0.087550000000     0.738350000000     0.387410000000     0.508785   
Cd29     Cd     0.088010000000     0.386250000000     0.737540000000     0.507592   
Cd30     Cd     0.879700000000     0.383650000000     0.741860000000     0.509307   
Cd31     Cd     0.882890000000     0.591040000000     0.747440000000     0.50744    
Cd32     Cd     0.087660000000     0.591910000000     0.737480000000     0.506419   
Cd33     Cd     0.233390000000     0.092450000000     0.387040000000     0.508289   
Cd34     Cd     0.235010000000     0.884180000000     0.384480000000     0.509213   
Cd35     Cd     0.235990000000     0.884260000000     0.592590000000     0.508747   
Cd36     Cd     0.235940000000     0.092160000000     0.594260000000     0.508623   
Cd37     Cd     0.090480000000     0.239880000000     0.385270000000     0.509126   
Cd38     Cd     0.881200000000     0.238360000000     0.387500000000     0.508346   
Cd39     Cd     0.879480000000     0.237220000000     0.594330000000     0.508195   
Cd40     Cd     0.088790000000     0.237080000000     0.592710000000     0.508569   
Cd41     Cd     0.735370000000     0.881610000000     0.600400000000     0.50943    
Cd42     Cd     0.733930000000     0.089160000000     0.594650000000     0.508973   
Cd43     Cd     0.735900000000     0.089850000000     0.386420000000     0.508951   
Cd44     Cd     0.736550000000     0.882120000000     0.392330000000     0.509084   
Cd45     Cd     0.383900000000     0.881840000000     0.737700000000     0.508985   
Cd46     Cd     0.383270000000     0.090200000000     0.740330000000     0.509032   
Cd47     Cd     0.589880000000     0.882090000000     0.746540000000     0.50658    
Cd48     Cd     0.591480000000     0.088260000000     0.744540000000     0.507752   
H1       H      0.565400000000     0.972490000000     0.766430000000     0.0502198  
H2       H      0.565320000000     0.940390000000     0.765340000000     0.0465823  
H3       H      0.621380000000     0.941010000000     0.754890000000     0.0462896  
H4       H      0.621400000000     0.973210000000     0.755880000000     0.050418   
H5       H      0.616440000000     0.999970000000     0.775070000000     0.0495359  
H6       H      0.615950000000     0.031970000000     0.771040000000     0.0472552  
H7       H      0.568740000000     0.026440000000     0.738970000000     0.0470514  
H8       H      0.569270000000     0.994680000000     0.742950000000     0.0497183  
H9       H      0.476230000000     0.083810000000     0.763080000000     0.0500385  
H10      H      0.444200000000     0.082380000000     0.763440000000     0.0471518  
H11      H      0.442020000000     0.109790000000     0.713850000000     0.0471109  
H12      H      0.474390000000     0.111560000000     0.713670000000     0.0500799  
H13      H      0.500340000000     0.092300000000     0.710740000000     0.0502012  
H14      H      0.532640000000     0.090840000000     0.711750000000     0.0471544  
H15      H      0.531910000000     0.103240000000     0.767360000000     0.0465286  
H16      H      0.499870000000     0.105120000000     0.766270000000     0.049811   
H17      H      0.378350000000     0.973140000000     0.770610000000     0.0501094  
H18      H      0.379340000000     0.940920000000     0.769790000000     0.0468029  
H19      H      0.377730000000     0.941930000000     0.712950000000     0.0465447  
H20      H      0.376130000000     0.973850000000     0.713740000000     0.0497843  
H21      H      0.395720000000     0.997690000000     0.720320000000     0.0491828  
H22      H      0.396340000000     0.029610000000     0.719880000000     0.0474845  
H23      H      0.361490000000     0.031210000000     0.764620000000     0.0470975  
H24      H      0.360400000000     0.998940000000     0.764740000000     0.0493112  
H25      H      0.473750000000     0.871290000000     0.702280000000     0.0502654  
H26      H      0.441520000000     0.874300000000     0.703900000000     0.0465975  
H27      H      0.445310000000     0.876960000000     0.760660000000     0.0469023  
H28      H      0.477210000000     0.873940000000     0.759020000000     0.050748   
H29      H      0.500840000000     0.890530000000     0.709600000000     0.0502605  
H30      H      0.533130000000     0.891400000000     0.711820000000     0.0467316  
H31      H      0.531250000000     0.851990000000     0.752500000000     0.0467612  
H32      H      0.499120000000     0.851090000000     0.750180000000     0.0501788  
H33      H      0.769720000000     0.999190000000     0.384550000000     0.0494015  
H34      H      0.768850000000     0.031440000000     0.384240000000     0.0468832  
H35      H      0.712100000000     0.029180000000     0.377660000000     0.0469373  
H36      H      0.713000000000     0.997220000000     0.377400000000     0.0492612  
H37      H      0.717910000000     0.975250000000     0.399090000000     0.0500019  
H38      H      0.717000000000     0.943450000000     0.401480000000     0.0473435  
H39      H      0.764450000000     0.939660000000     0.370480000000     0.0467404  
H40      H      0.765110000000     0.971810000000     0.367640000000     0.0499942  
H41      H      0.648620000000     0.094340000000     0.639070000000     0.0501647  
H42      H      0.670820000000     0.093790000000     0.615890000000     0.0471565  
H43      H      0.711670000000     0.104960000000     0.654590000000     0.0467201  
H44      H      0.689540000000     0.106040000000     0.677590000000     0.050032   
H45      H      0.671680000000     0.084730000000     0.692360000000     0.050192   
H46      H      0.650390000000     0.082140000000     0.715950000000     0.0471321  
H47      H      0.611530000000     0.109030000000     0.684280000000     0.0472622  
H48      H      0.633110000000     0.112060000000     0.660670000000     0.0500667  
H49      H      0.758920000000     0.094260000000     0.479320000000     0.0499012  
H50      H      0.760050000000     0.093720000000     0.447400000000     0.0468674  
H51      H      0.703000000000     0.094740000000     0.444720000000     0.0468556  
H52      H      0.701830000000     0.094750000000     0.476940000000     0.050084   
H53      H      0.708520000000     0.111850000000     0.503730000000     0.0501033  
H54      H      0.708780000000     0.110460000000     0.535950000000     0.0469402  
H55      H      0.751530000000     0.073150000000     0.533870000000     0.04707    
H56      H      0.750950000000     0.074140000000     0.501970000000     0.0500188  
H57      H      0.651430000000     0.860000000000     0.643190000000     0.0498829  
H58      H      0.674670000000     0.862010000000     0.621100000000     0.047435   
H59      H      0.711450000000     0.880390000000     0.661180000000     0.0473684  
H60      H      0.688280000000     0.878910000000     0.683020000000     0.050035   
H61      H      0.670160000000     0.859340000000     0.699400000000     0.0499185  
H62      H      0.647790000000     0.862260000000     0.722030000000     0.0470585  
H63      H      0.610810000000     0.881740000000     0.683330000000     0.0467249  
H64      H      0.633420000000     0.879390000000     0.660710000000     0.0500103  
H65      H      0.702200000000     0.875670000000     0.508940000000     0.050002   
H66      H      0.703010000000     0.875590000000     0.541210000000     0.0467563  
H67      H      0.760010000000     0.879200000000     0.540190000000     0.04691    
H68      H      0.759270000000     0.878750000000     0.508250000000     0.049914   
H69      H      0.751000000000     0.898620000000     0.485480000000     0.0499408  
H70      H      0.752170000000     0.899530000000     0.453600000000     0.0469915  
H71      H      0.710580000000     0.860250000000     0.450100000000     0.0468881  
H72      H      0.709740000000     0.858940000000     0.482310000000     0.0500646  
H73      H      0.768300000000     0.973120000000     0.602940000000     0.049985   
H74      H      0.767800000000     0.940850000000     0.603290000000     0.0464525  
H75      H      0.711130000000     0.941470000000     0.609630000000     0.0464786  
H76      H      0.711650000000     0.973450000000     0.609890000000     0.049923   
H77      H      0.715960000000     0.995480000000     0.588160000000     0.0493696  
H78      H      0.714660000000     0.027240000000     0.585640000000     0.0475878  
H79      H      0.762580000000     0.032500000000     0.616690000000     0.0469806  
H80      H      0.763620000000     0.000400000000     0.619690000000     0.0498678  
H81      H      0.837270000000     0.151000000000     0.601380000000     0.050017   
H82      H      0.859890000000     0.174050000000     0.600190000000     0.0476851  
H83      H      0.820970000000     0.212960000000     0.614050000000     0.0465656  
H84      H      0.798490000000     0.189900000000     0.615830000000     0.0498544  
H85      H      0.817180000000     0.134080000000     0.619200000000     0.0499082  
H86      H      0.794150000000     0.111470000000     0.615740000000     0.0473758  
H87      H      0.759660000000     0.149760000000     0.591940000000     0.047271   
H88      H      0.782690000000     0.172090000000     0.594900000000     0.0501084  
H89      H      0.970730000000     0.204630000000     0.602770000000     0.0501087  
H90      H      0.938380000000     0.205650000000     0.602700000000     0.0467828  
H91      H      0.940680000000     0.261170000000     0.590800000000     0.0468112  
H92      H      0.972720000000     0.260310000000     0.591430000000     0.0499202  
H93      H      0.995760000000     0.249130000000     0.573630000000     0.0489405  
H94      H      0.027790000000     0.250060000000     0.573130000000     0.0474415  
H95      H      0.029830000000     0.214860000000     0.617460000000     0.0468901  
H96      H      0.997450000000     0.214370000000     0.618360000000     0.0491045  
H97      H      0.799250000000     0.191360000000     0.366770000000     0.0497737  
H98      H      0.821810000000     0.214290000000     0.369520000000     0.0465235  
H99      H      0.860980000000     0.174960000000     0.381300000000     0.0470772  
H100     H      0.838250000000     0.151980000000     0.379230000000     0.0500596  
H101     H      0.817810000000     0.135500000000     0.360970000000     0.0499751  
H102     H      0.794830000000     0.112830000000     0.363620000000     0.0472931  
H103     H      0.760700000000     0.150740000000     0.388590000000     0.0473244  
H104     H      0.783670000000     0.173080000000     0.386510000000     0.0500095  
H105     H      0.856870000000     0.267630000000     0.476930000000     0.049986   
H106     H      0.859910000000     0.266760000000     0.444830000000     0.047053   
H107     H      0.885090000000     0.216040000000     0.448550000000     0.0473476  
H108     H      0.882450000000     0.217070000000     0.480310000000     0.0501533  
H109     H      0.860510000000     0.215190000000     0.502810000000     0.0498456  
H110     H      0.862090000000     0.214520000000     0.534770000000     0.046265   
H111     H      0.876200000000     0.269780000000     0.536010000000     0.0466398  
H112     H      0.875140000000     0.270350000000     0.503800000000     0.050125   
H113     H      0.998810000000     0.206620000000     0.377850000000     0.0492037  
H114     H      0.031180000000     0.207730000000     0.377810000000     0.0472981  
H115     H      0.029680000000     0.264120000000     0.385730000000     0.0473733  
H116     H      0.997610000000     0.263110000000     0.385270000000     0.048881   
H117     H      0.974700000000     0.253170000000     0.404280000000     0.0499958  
H118     H      0.942680000000     0.253790000000     0.405300000000     0.047075   
H119     H      0.939690000000     0.215370000000     0.363050000000     0.0466142  
H120     H      0.972040000000     0.215100000000     0.361680000000     0.0501412  
H121     H      0.103740000000     0.214610000000     0.476240000000     0.049756   
H122     H      0.102060000000     0.214670000000     0.444310000000     0.0465044  
H123     H      0.094570000000     0.271010000000     0.445080000000     0.0465935  
H124     H      0.095630000000     0.270900000000     0.477310000000     0.0501327  
H125     H      0.113550000000     0.266210000000     0.503750000000     0.0500303  
H126     H      0.111320000000     0.264940000000     0.535890000000     0.0469649  
H127     H      0.081220000000     0.216470000000     0.531080000000     0.0473797  
H128     H      0.082970000000     0.217980000000     0.499310000000     0.0500206  
H129     H      0.186390000000     0.173540000000     0.591940000000     0.049998   
H130     H      0.209600000000     0.151800000000     0.590080000000     0.0473356  
H131     H      0.176090000000     0.113770000000     0.615880000000     0.0472179  
H132     H      0.152840000000     0.135860000000     0.618280000000     0.0499922  
H133     H      0.132050000000     0.151510000000     0.600030000000     0.0501279  
H134     H      0.109210000000     0.174000000000     0.598240000000     0.0470803  
H135     H      0.148430000000     0.214320000000     0.609540000000     0.0465979  
H136     H      0.171070000000     0.191900000000     0.611980000000     0.0498959  
H137     H      0.319830000000     0.115870000000     0.638160000000     0.0498209  
H138     H      0.296400000000     0.113430000000     0.615890000000     0.0472146  
H139     H      0.260720000000     0.093230000000     0.655100000000     0.0472515  
H140     H      0.284120000000     0.094950000000     0.677070000000     0.0499277  
H141     H      0.301820000000     0.113740000000     0.694630000000     0.0497685  
H142     H      0.324590000000     0.110440000000     0.717160000000     0.0462446  
H143     H      0.361960000000     0.095090000000     0.677340000000     0.0468016  
H144     H      0.338970000000     0.097590000000     0.654800000000     0.0500239  
H145     H      0.281780000000     0.861020000000     0.673830000000     0.0497936  
H146     H      0.259090000000     0.864410000000     0.651230000000     0.0463806  
H147     H      0.299210000000     0.877750000000     0.613380000000     0.0470679  
H148     H      0.321930000000     0.875040000000     0.636170000000     0.0500859  
H149     H      0.338010000000     0.856260000000     0.655710000000     0.0499114  
H150     H      0.360660000000     0.858770000000     0.678780000000     0.0473108  
H151     H      0.322500000000     0.882250000000     0.713640000000     0.0472297  
H152     H      0.300160000000     0.880330000000     0.690590000000     0.0499962  
H153     H      0.256930000000     0.977380000000     0.586830000000     0.049869   
H154     H      0.257870000000     0.945500000000     0.585190000000     0.0472155  
H155     H      0.208700000000     0.942190000000     0.613520000000     0.046877   
H156     H      0.208010000000     0.974390000000     0.615680000000     0.0498808  
H157     H      0.203990000000     0.000540000000     0.597950000000     0.050017   
H158     H      0.204320000000     0.032760000000     0.597150000000     0.0469794  
H159     H      0.260810000000     0.032870000000     0.605880000000     0.0465885  
H160     H      0.260430000000     0.000910000000     0.607320000000     0.0496592  
H161     H      0.210740000000     0.877660000000     0.476380000000     0.0498291  
H162     H      0.210030000000     0.878500000000     0.444440000000     0.0467508  
H163     H      0.267120000000     0.878540000000     0.443510000000     0.0468651  
H164     H      0.267860000000     0.878220000000     0.475750000000     0.0500572  
H165     H      0.261150000000     0.860870000000     0.501910000000     0.0500763  
H166     H      0.260740000000     0.862410000000     0.534120000000     0.0470937  
H167     H      0.217370000000     0.898980000000     0.531620000000     0.0470089  
H168     H      0.218070000000     0.897830000000     0.499710000000     0.0498965  
H169     H      0.172450000000     0.191520000000     0.382050000000     0.0499423  
H170     H      0.150980000000     0.214970000000     0.383930000000     0.04732    
H171     H      0.110480000000     0.179890000000     0.363160000000     0.0473955  
H172     H      0.132240000000     0.156390000000     0.360670000000     0.0499209  
H173     H      0.148670000000     0.137260000000     0.379490000000     0.0500448  
H174     H      0.170760000000     0.114200000000     0.382230000000     0.047263   
H175     H      0.211390000000     0.150920000000     0.366330000000     0.0463422  
H176     H      0.189290000000     0.173780000000     0.362890000000     0.0497153  
H177     H      0.209250000000     0.001220000000     0.361780000000     0.0500869  
H178     H      0.209520000000     0.033490000000     0.363200000000     0.0467901  
H179     H      0.245340000000     0.031790000000     0.407760000000     0.0469251  
H180     H      0.244710000000     0.999840000000     0.406650000000     0.0493674  
H181     H      0.256320000000     0.977490000000     0.387570000000     0.0499924  
H182     H      0.257980000000     0.945590000000     0.387300000000     0.047042   
H183     H      0.201880000000     0.942010000000     0.376540000000     0.046894   
H184     H      0.200110000000     0.974240000000     0.377250000000     0.0500781  
H185     H      0.211830000000     0.103620000000     0.479300000000     0.0499721  
H186     H      0.210250000000     0.103830000000     0.447330000000     0.0466525  
H187     H      0.267080000000     0.099570000000     0.444850000000     0.0472548  
H188     H      0.268640000000     0.098960000000     0.477060000000     0.0501481  
H189     H      0.218270000000     0.081050000000     0.500690000000     0.0501993  
H190     H      0.217970000000     0.078220000000     0.532490000000     0.0471318  
H191     H      0.263610000000     0.112660000000     0.536780000000     0.0471071  
H192     H      0.263710000000     0.115780000000     0.504690000000     0.0500878  
H193     H      0.972600000000     0.620530000000     0.771620000000     0.0502476  
H194     H      0.940290000000     0.618800000000     0.769370000000     0.0466175  
H195     H      0.944100000000     0.566290000000     0.747410000000     0.0461164  
H196     H      0.976200000000     0.568000000000     0.749720000000     0.0503101  
H197     H      0.000960000000     0.570190000000     0.772020000000     0.0498624  
H198     H      0.032900000000     0.570810000000     0.767720000000     0.0466985  
H199     H      0.028900000000     0.622380000000     0.744450000000     0.0467251  
H200     H      0.996940000000     0.621720000000     0.748780000000     0.0496583  
H201     H      0.864570000000     0.300230000000     0.696230000000     0.0499153  
H202     H      0.866650000000     0.323000000000     0.718890000000     0.0466835  
H203     H      0.871350000000     0.362750000000     0.678820000000     0.0470603  
H204     H      0.869880000000     0.339840000000     0.656040000000     0.0500771  
H205     H      0.852100000000     0.317500000000     0.641230000000     0.0499969  
H206     H      0.854700000000     0.294550000000     0.618600000000     0.0472853  
H207     H      0.886730000000     0.263850000000     0.654080000000     0.0471904  
H208     H      0.884610000000     0.286820000000     0.676360000000     0.0499743  
H209     H      0.885090000000     0.476270000000     0.765380000000     0.0499752  
H210     H      0.886470000000     0.444380000000     0.765600000000     0.0472822  
H211     H      0.861230000000     0.442090000000     0.714370000000     0.0470304  
H212     H      0.859490000000     0.474330000000     0.714300000000     0.050024   
H213     H      0.878870000000     0.500540000000     0.712720000000     0.0500791  
H214     H      0.880560000000     0.532740000000     0.714080000000     0.047187   
H215     H      0.865910000000     0.531450000000     0.768910000000     0.0464842  
H216     H      0.863780000000     0.499500000000     0.767440000000     0.0497901  
H217     H      0.111480000000     0.340740000000     0.655340000000     0.0498286  
H218     H      0.109100000000     0.363460000000     0.678150000000     0.0470598  
H219     H      0.088060000000     0.324850000000     0.713950000000     0.0471364  
H220     H      0.089670000000     0.302400000000     0.691110000000     0.049835   
H221     H      0.108490000000     0.284600000000     0.674460000000     0.0496766  
H222     H      0.105810000000     0.261620000000     0.652040000000     0.0464657  
H223     H      0.091580000000     0.300540000000     0.613430000000     0.0468365  
H224     H      0.093420000000     0.323530000000     0.636030000000     0.0499345  
H225     H      0.971130000000     0.363470000000     0.769290000000     0.0501333  
H226     H      0.938780000000     0.365180000000     0.769160000000     0.0468574  
H227     H      0.940470000000     0.392890000000     0.719740000000     0.0471786  
H228     H      0.972480000000     0.391520000000     0.720050000000     0.0500268  
H229     H      0.995440000000     0.369970000000     0.716550000000     0.0488663  
H230     H      0.027490000000     0.371590000000     0.715180000000     0.0469608  
H231     H      0.030010000000     0.383750000000     0.770830000000     0.0475042  
H232     H      0.997700000000     0.382550000000     0.772120000000     0.0491879  
H233     H      0.065880000000     0.479460000000     0.739150000000     0.0503067  
H234     H      0.065350000000     0.447670000000     0.743110000000     0.0465792  
H235     H      0.111470000000     0.442800000000     0.710340000000     0.0469357  
H236     H      0.111990000000     0.474820000000     0.706370000000     0.0501818  
H237     H      0.117780000000     0.501340000000     0.726080000000     0.0503725  
H238     H      0.118170000000     0.533510000000     0.727600000000     0.0467915  
H239     H      0.061910000000     0.534000000000     0.717280000000     0.0466127  
H240     H      0.061580000000     0.501890000000     0.715710000000     0.0499667  
H241     H      0.132470000000     0.823360000000     0.378140000000     0.050068   
H242     H      0.109350000000     0.800990000000     0.381000000000     0.0471735  
H243     H      0.147000000000     0.760460000000     0.368380000000     0.0464242  
H244     H      0.169930000000     0.782790000000     0.364790000000     0.0497381  
H245     H      0.187040000000     0.801210000000     0.383510000000     0.0499537  
H246     H      0.210400000000     0.823260000000     0.385050000000     0.0473071  
H247     H      0.175550000000     0.861420000000     0.361570000000     0.0472649  
H248     H      0.152190000000     0.839040000000     0.359400000000     0.0499161  
H249     H      0.839010000000     0.819800000000     0.394820000000     0.0500412  
H250     H      0.861010000000     0.796460000000     0.396290000000     0.0469136  
H251     H      0.822730000000     0.759350000000     0.374880000000     0.0472391  
H252     H      0.800970000000     0.782680000000     0.372950000000     0.0500116  
H253     H      0.821200000000     0.838170000000     0.375520000000     0.0500053  
H254     H      0.798310000000     0.860700000000     0.377210000000     0.0472797  
H255     H      0.760890000000     0.821430000000     0.394770000000     0.047406   
H256     H      0.783690000000     0.799160000000     0.393510000000     0.0500224  
H257     H      0.970980000000     0.715730000000     0.370380000000     0.0499982  
H258     H      0.938960000000     0.714020000000     0.372410000000     0.0465126  
H259     H      0.937950000000     0.767190000000     0.393140000000     0.0469132  
H260     H      0.970240000000     0.768780000000     0.391370000000     0.0503689  
H261     H      0.996360000000     0.768520000000     0.371220000000     0.0491819  
H262     H      0.028760000000     0.767970000000     0.372770000000     0.0473788  
H263     H      0.026340000000     0.715430000000     0.394120000000     0.0475688  
H264     H      0.994300000000     0.716070000000     0.392790000000     0.0493654  
H265     H      0.130920000000     0.825900000000     0.598680000000     0.0501372  
H266     H      0.107560000000     0.803560000000     0.597720000000     0.0474342  
H267     H      0.145030000000     0.764190000000     0.614080000000     0.0464951  
H268     H      0.168280000000     0.786590000000     0.615500000000     0.0499528  
H269     H      0.151480000000     0.842960000000     0.616860000000     0.0499222  
H270     H      0.175190000000     0.864690000000     0.613180000000     0.0474016  
H271     H      0.208280000000     0.824390000000     0.590670000000     0.0472353  
H272     H      0.184600000000     0.802880000000     0.593940000000     0.0500682  
H273     H      0.106470000000     0.655870000000     0.634910000000     0.0501377  
H274     H      0.103950000000     0.679470000000     0.613300000000     0.0470301  
H275     H      0.081110000000     0.713240000000     0.652970000000     0.0472668  
H276     H      0.083330000000     0.689710000000     0.674340000000     0.0503061  
H277     H      0.105390000000     0.673650000000     0.690870000000     0.050168   
H278     H      0.104470000000     0.650910000000     0.713250000000     0.0469735  
H279     H      0.086700000000     0.612920000000     0.674130000000     0.0466268  
H280     H      0.087280000000     0.635840000000     0.651720000000     0.0503546  
H281     H      0.112480000000     0.757990000000     0.503850000000     0.0498017  
H282     H      0.110250000000     0.759020000000     0.535760000000     0.0464596  
H283     H      0.084360000000     0.708060000000     0.535060000000     0.0471589  
H284     H      0.086260000000     0.707200000000     0.502920000000     0.0502525  
H285     H      0.105950000000     0.706040000000     0.476960000000     0.0500826  
H286     H      0.103500000000     0.707320000000     0.444780000000     0.0470906  
H287     H      0.088450000000     0.761990000000     0.448660000000     0.0471886  
H288     H      0.090620000000     0.760650000000     0.480500000000     0.0502068  
H289     H      0.836750000000     0.820320000000     0.603190000000     0.0501693  
H290     H      0.859270000000     0.797650000000     0.600550000000     0.0467362  
H291     H      0.821420000000     0.758330000000     0.617060000000     0.0468905  
H292     H      0.799090000000     0.781010000000     0.620260000000     0.0499024  
H293     H      0.781780000000     0.798450000000     0.600800000000     0.0500482  
H294     H      0.758860000000     0.820570000000     0.599480000000     0.047329   
H295     H      0.795260000000     0.859470000000     0.621000000000     0.0473732  
H296     H      0.818230000000     0.837080000000     0.622820000000     0.0499616  
H297     H      0.879060000000     0.648890000000     0.642050000000     0.0501513  
H298     H      0.879280000000     0.671280000000     0.619120000000     0.0467431  
H299     H      0.867440000000     0.711200000000     0.658040000000     0.0471408  
H300     H      0.866730000000     0.688860000000     0.680790000000     0.0500736  
H301     H      0.888100000000     0.671220000000     0.695860000000     0.0500687  
H302     H      0.890150000000     0.649790000000     0.719320000000     0.0471027  
H303     H      0.863260000000     0.611140000000     0.686430000000     0.0471414  
H304     H      0.860800000000     0.632860000000     0.662930000000     0.0500285  
H305     H      0.894500000000     0.698480000000     0.510170000000     0.0498584  
H306     H      0.894830000000     0.701630000000     0.542170000000     0.0467655  
H307     H      0.848160000000     0.733920000000     0.539280000000     0.0467425  
H308     H      0.848000000000     0.730990000000     0.507290000000     0.0501677  
H309     H      0.844770000000     0.711290000000     0.481440000000     0.0500341  
H310     H      0.847080000000     0.714990000000     0.449560000000     0.0461997  
H311     H      0.903480000000     0.722950000000     0.455160000000     0.0465343  
H312     H      0.901150000000     0.719480000000     0.486840000000     0.0502442  
H313     H      0.967710000000     0.763940000000     0.571830000000     0.0500318  
H314     H      0.935650000000     0.760460000000     0.573060000000     0.0464266  
H315     H      0.940080000000     0.742420000000     0.626700000000     0.0464232  
H316     H      0.972170000000     0.745760000000     0.625390000000     0.0502895  
H317     H      0.997260000000     0.767060000000     0.622340000000     0.0494198  
H318     H      0.029420000000     0.764350000000     0.620600000000     0.0471409  
H319     H      0.023800000000     0.739510000000     0.569440000000     0.0464951  
H320     H      0.991820000000     0.742120000000     0.571220000000     0.050206   
H321     H      0.148750000000     0.378270000000     0.842190000000     0.0500336  
H322     H      0.171760000000     0.378520000000     0.864980000000     0.0472609  
H323     H      0.211510000000     0.371850000000     0.825050000000     0.0468426  
H324     H      0.188580000000     0.371050000000     0.802390000000     0.0499461  
H325     H      0.169460000000     0.392140000000     0.789170000000     0.04999    
H326     H      0.147290000000     0.394770000000     0.766060000000     0.0470238  
H327     H      0.110550000000     0.364150000000     0.796780000000     0.0471723  
H328     H      0.133040000000     0.361080000000     0.819870000000     0.0500579  
H329     H      0.211450000000     0.357530000000     0.975480000000     0.0500672  
H330     H      0.211880000000     0.359340000000     0.943280000000     0.0466176  
H331     H      0.249470000000     0.402420000000     0.947060000000     0.0472724  
H332     H      0.248690000000     0.400960000000     0.978910000000     0.0499955  
H333     H      0.258940000000     0.381820000000     0.001570000000     0.0498065  
H334     H      0.259650000000     0.382360000000     0.033530000000     0.0468369  
H335     H      0.203210000000     0.373330000000     0.034500000000     0.0471403  
H336     H      0.202390000000     0.373300000000     0.002250000000     0.0501155  
H337     H      0.268570000000     0.499340000000     0.097500000000     0.0501252  
H338     H      0.267970000000     0.531560000000     0.096740000000     0.0472394  
H339     H      0.214190000000     0.530600000000     0.115370000000     0.0464473  
H340     H      0.214910000000     0.498610000000     0.116500000000     0.0498184  
H341     H      0.267260000000     0.472370000000     0.115740000000     0.0501174  
H342     H      0.265800000000     0.440240000000     0.112230000000     0.046893   
H343     H      0.213130000000     0.444500000000     0.090300000000     0.0472461  
H344     H      0.214690000000     0.476290000000     0.093520000000     0.0503005  
H345     H      0.187090000000     0.613490000000     0.804500000000     0.0498473  
H346     H      0.209780000000     0.611850000000     0.827360000000     0.0464878  
H347     H      0.170370000000     0.595390000000     0.864740000000     0.0476539  
H348     H      0.147730000000     0.596440000000     0.841740000000     0.0500178  
H349     H      0.170210000000     0.592660000000     0.787600000000     0.050147   
H350     H      0.148330000000     0.589830000000     0.764130000000     0.0477066  
H351     H      0.108460000000     0.610930000000     0.798600000000     0.0465805  
H352     H      0.130580000000     0.614290000000     0.822070000000     0.0498331  
H353     H      0.213130000000     0.499820000000     0.863390000000     0.0499415  
H354     H      0.212150000000     0.531790000000     0.865080000000     0.0461737  
H355     H      0.266890000000     0.533340000000     0.881770000000     0.04678    
H356     H      0.267740000000     0.501120000000     0.880520000000     0.0502322  
H357     H      0.265750000000     0.474090000000     0.862030000000     0.0500065  
H358     H      0.264820000000     0.441980000000     0.865340000000     0.0469627  
H359     H      0.213210000000     0.445900000000     0.888920000000     0.0473853  
H360     H      0.214280000000     0.477650000000     0.885950000000     0.0502955  
H361     H      0.199390000000     0.600560000000     0.975840000000     0.050018   
H362     H      0.201520000000     0.601680000000     0.943720000000     0.0469833  
H363     H      0.253140000000     0.577940000000     0.946670000000     0.0471324  
H364     H      0.251250000000     0.577260000000     0.978510000000     0.0500663  
H365     H      0.235870000000     0.562110000000     0.001230000000     0.0498821  
H366     H      0.237300000000     0.562050000000     0.033200000000     0.0462538  
H367     H      0.213060000000     0.613350000000     0.034760000000     0.0466415  
H368     H      0.212120000000     0.613680000000     0.002560000000     0.0500212  
H369     H      0.172370000000     0.597950000000     0.192010000000     0.0498882  
H370     H      0.150280000000     0.596470000000     0.214950000000     0.0471203  
H371     H      0.110170000000     0.612930000000     0.177920000000     0.0472369  
H372     H      0.132470000000     0.615090000000     0.154980000000     0.0499096  
H373     H      0.149590000000     0.595790000000     0.137270000000     0.0500984  
H374     H      0.172000000000     0.592630000000     0.114660000000     0.0473854  
H375     H      0.211760000000     0.612430000000     0.151060000000     0.0462926  
H376     H      0.189270000000     0.616280000000     0.173490000000     0.0497246  
H377     H      0.098750000000     0.693590000000     0.303210000000     0.0499022  
H378     H      0.097190000000     0.716080000000     0.326130000000     0.0467524  
H379     H      0.095510000000     0.675660000000     0.365760000000     0.0472249  
H380     H      0.096440000000     0.653020000000     0.342720000000     0.050123   
H381     H      0.113820000000     0.639200000000     0.319990000000     0.050022   
H382     H      0.111710000000     0.616780000000     0.296700000000     0.0470685  
H383     H      0.077360000000     0.650700000000     0.266780000000     0.0471052  
H384     H      0.078980000000     0.672720000000     0.290100000000     0.0499185  
H385     H      0.886910000000     0.670250000000     0.295730000000     0.0499773  
H386     H      0.890060000000     0.648880000000     0.271990000000     0.0477505  
H387     H      0.861910000000     0.610070000000     0.302460000000     0.0466362  
H388     H      0.858330000000     0.631710000000     0.326180000000     0.0499078  
H389     H      0.865010000000     0.687870000000     0.309980000000     0.0499666  
H390     H      0.865310000000     0.710110000000     0.333270000000     0.0466666  
H391     H      0.875370000000     0.669810000000     0.371800000000     0.0470122  
H392     H      0.875580000000     0.647560000000     0.348410000000     0.049997   
H393     H      0.973320000000     0.620740000000     0.227770000000     0.0503079  
H394     H      0.941140000000     0.620910000000     0.230280000000     0.0468366  
H395     H      0.939670000000     0.564610000000     0.221400000000     0.0464115  
H396     H      0.971780000000     0.564490000000     0.218800000000     0.0498497  
H397     H      0.995400000000     0.569440000000     0.241340000000     0.0492436  
H398     H      0.027420000000     0.569330000000     0.244510000000     0.0469227  
H399     H      0.031200000000     0.614680000000     0.210730000000     0.0472442  
H400     H      0.998930000000     0.614760000000     0.207530000000     0.0492605  
H401     H      0.877130000000     0.302410000000     0.289340000000     0.0498344  
H402     H      0.878550000000     0.324620000000     0.266610000000     0.0469676  
H403     H      0.861600000000     0.364140000000     0.303910000000     0.0468837  
H404     H      0.859360000000     0.341690000000     0.326620000000     0.0498026  
H405     H      0.877550000000     0.324280000000     0.344770000000     0.0497878  
H406     H      0.879720000000     0.301550000000     0.367150000000     0.0466495  
H407     H      0.861910000000     0.262460000000     0.329210000000     0.0463755  
H408     H      0.858860000000     0.285200000000     0.307050000000     0.0496242  
H409     H      0.905330000000     0.479150000000     0.250340000000     0.0503022  
H410     H      0.906830000000     0.447250000000     0.246880000000     0.0460936  
H411     H      0.853730000000     0.442200000000     0.266810000000     0.0468574  
H412     H      0.852220000000     0.474280000000     0.270200000000     0.0502456  
H413     H      0.851620000000     0.499430000000     0.248330000000     0.0505044  
H414     H      0.851250000000     0.531450000000     0.245400000000     0.0464545  
H415     H      0.902590000000     0.534930000000     0.270650000000     0.0465166  
H416     H      0.902930000000     0.502920000000     0.273550000000     0.0499589  
H417     H      0.098480000000     0.342220000000     0.325490000000     0.0501189  
H418     H      0.096430000000     0.364940000000     0.303050000000     0.0472591  
H419     H      0.108170000000     0.326290000000     0.262860000000     0.0464603  
H420     H      0.110870000000     0.303730000000     0.285280000000     0.0498556  
H421     H      0.090760000000     0.287940000000     0.303160000000     0.0500527  
H422     H      0.088350000000     0.264950000000     0.325000000000     0.0473833  
H423     H      0.113790000000     0.298950000000     0.363650000000     0.0473018  
H424     H      0.116750000000     0.321960000000     0.341500000000     0.0499726  
H425     H      0.148430000000     0.375810000000     0.136580000000     0.0500702  
H426     H      0.171080000000     0.376550000000     0.113870000000     0.047233   
H427     H      0.211250000000     0.367010000000     0.153320000000     0.0465865  
H428     H      0.188650000000     0.365670000000     0.175880000000     0.0498972  
H429     H      0.132390000000     0.358510000000     0.157890000000     0.0499372  
H430     H      0.110280000000     0.362040000000     0.180950000000     0.047332   
H431     H      0.148780000000     0.389830000000     0.213350000000     0.0473429  
H432     H      0.170580000000     0.386780000000     0.190310000000     0.0499795  
H433     H      0.997970000000     0.367340000000     0.209530000000     0.0490867  
H434     H      0.030330000000     0.369380000000     0.210220000000     0.0473704  
H435     H      0.028520000000     0.387280000000     0.264330000000     0.0476129  
H436     H      0.996510000000     0.385630000000     0.263530000000     0.0490588  
H437     H      0.972880000000     0.364310000000     0.262380000000     0.0498119  
H438     H      0.940860000000     0.366180000000     0.263680000000     0.0463564  
H439     H      0.939620000000     0.387910000000     0.211310000000     0.0470032  
H440     H      0.971900000000     0.386480000000     0.210180000000     0.0500898  
H441     H      0.079200000000     0.477980000000     0.220410000000     0.0500018  
H442     H      0.077270000000     0.446050000000     0.219920000000     0.0470667  
H443     H      0.109210000000     0.443990000000     0.267290000000     0.0471741  
H444     H      0.111430000000     0.476220000000     0.267600000000     0.0500847  
H445     H      0.093120000000     0.502810000000     0.271790000000     0.0501764  
H446     H      0.092840000000     0.535030000000     0.270700000000     0.0471413  
H447     H      0.100580000000     0.532640000000     0.214440000000     0.04659    
H448     H      0.101250000000     0.500670000000     0.215590000000     0.0499256  
H449     H      0.614410000000     0.189330000000     0.809990000000     0.0496691  
H450     H      0.609510000000     0.212480000000     0.831780000000     0.0463868  
H451     H      0.584410000000     0.174720000000     0.865890000000     0.0472838  
H452     H      0.588710000000     0.151660000000     0.843860000000     0.0501045  
H453     H      0.609190000000     0.133390000000     0.828560000000     0.0499187  
H454     H      0.608250000000     0.110620000000     0.805640000000     0.0472388  
H455     H      0.596610000000     0.150170000000     0.766760000000     0.0470579  
H456     H      0.596950000000     0.172750000000     0.789610000000     0.0499399  
H457     H      0.561400000000     0.245180000000     0.979660000000     0.049859   
H458     H      0.559890000000     0.246080000000     0.947710000000     0.0464689  
H459     H      0.606470000000     0.213710000000     0.944600000000     0.0469102  
H460     H      0.608230000000     0.213150000000     0.976800000000     0.0501222  
H461     H      0.593520000000     0.202830000000     0.003830000000     0.0500789  
H462     H      0.595290000000     0.204730000000     0.036030000000     0.0470334  
H463     H      0.582100000000     0.259940000000     0.033710000000     0.047172   
H464     H      0.580700000000     0.258140000000     0.001820000000     0.0501314  
H465     H      0.298150000000     0.282690000000     0.115060000000     0.0498477  
H466     H      0.320550000000     0.259950000000     0.112830000000     0.0465578  
H467     H      0.358820000000     0.298970000000     0.096550000000     0.0474345  
H468     H      0.336260000000     0.321680000000     0.098240000000     0.0500506  
H469     H      0.317220000000     0.338790000000     0.116990000000     0.0499419  
H470     H      0.294280000000     0.361110000000     0.114270000000     0.0474906  
H471     H      0.258410000000     0.321840000000     0.092540000000     0.0472249  
H472     H      0.281340000000     0.299760000000     0.094770000000     0.0499405  
H473     H      0.472230000000     0.224660000000     0.075100000000     0.0499582  
H474     H      0.440170000000     0.223690000000     0.073480000000     0.0466902  
H475     H      0.437440000000     0.261910000000     0.115840000000     0.0469021  
H476     H      0.469800000000     0.262610000000     0.117720000000     0.0501394  
H477     H      0.496990000000     0.271110000000     0.101620000000     0.050154   
H478     H      0.529350000000     0.269790000000     0.102450000000     0.0469409  
H479     H      0.526460000000     0.213210000000     0.096140000000     0.0470054  
H480     H      0.494410000000     0.214480000000     0.095680000000     0.0500582  
H481     H      0.320800000000     0.340620000000     0.885420000000     0.0497197  
H482     H      0.298390000000     0.363540000000     0.886360000000     0.046604   
H483     H      0.259500000000     0.326590000000     0.865870000000     0.0464578  
H484     H      0.281960000000     0.303920000000     0.864130000000     0.0497665  
H485     H      0.297270000000     0.286020000000     0.884020000000     0.0499523  
H486     H      0.318470000000     0.262380000000     0.886280000000     0.0479621  
H487     H      0.360410000000     0.298010000000     0.871220000000     0.0460665  
H488     H      0.338940000000     0.321740000000     0.868220000000     0.0497215  
H489     H      0.361850000000     0.129170000000     0.826350000000     0.0500796  
H490     H      0.365710000000     0.107790000000     0.802410000000     0.0473947  
H491     H      0.379780000000     0.150130000000     0.767400000000     0.0472674  
H492     H      0.376240000000     0.171310000000     0.791240000000     0.050214   
H493     H      0.380300000000     0.148910000000     0.844820000000     0.0500877  
H494     H      0.380860000000     0.171740000000     0.867710000000     0.0465005  
H495     H      0.354760000000     0.207480000000     0.832190000000     0.0470359  
H496     H      0.353850000000     0.184620000000     0.809520000000     0.0501704  
H497     H      0.343150000000     0.235670000000     0.976880000000     0.049938   
H498     H      0.345360000000     0.237120000000     0.944940000000     0.0468131  
H499     H      0.395310000000     0.210030000000     0.947290000000     0.0467063  
H500     H      0.393150000000     0.208750000000     0.979360000000     0.050197   
H501     H      0.375990000000     0.196620000000     0.004690000000     0.0500919  
H502     H      0.377490000000     0.199720000000     0.036810000000     0.046974   
H503     H      0.361190000000     0.253930000000     0.032550000000     0.0465885  
H504     H      0.359790000000     0.250870000000     0.000670000000     0.050368   
H505     H      0.465740000000     0.240320000000     0.849620000000     0.0499448  
H506     H      0.433730000000     0.238220000000     0.852590000000     0.0465843  
H507     H      0.437660000000     0.261930000000     0.904410000000     0.0466384  
H508     H      0.469730000000     0.263840000000     0.901500000000     0.0502345  
H509     H      0.494840000000     0.277200000000     0.885370000000     0.0499746  
H510     H      0.527000000000     0.274080000000     0.886690000000     0.0470653  
H511     H      0.521990000000     0.221400000000     0.865120000000     0.0465541  
H512     H      0.490020000000     0.224460000000     0.863950000000     0.0503308  
H513     H      0.338910000000     0.878780000000     0.325540000000     0.0500184  
H514     H      0.362010000000     0.880500000000     0.303320000000     0.0468028  
H515     H      0.322950000000     0.870990000000     0.262450000000     0.0467677  
H516     H      0.300040000000     0.868580000000     0.284560000000     0.0498442  
H517     H      0.284670000000     0.887960000000     0.303360000000     0.0499282  
H518     H      0.261290000000     0.889280000000     0.324950000000     0.0473036  
H519     H      0.294500000000     0.862430000000     0.362490000000     0.0472738  
H520     H      0.317880000000     0.860520000000     0.340530000000     0.0499377  
H521     H      0.299530000000     0.084170000000     0.290860000000     0.0499773  
H522     H      0.321740000000     0.082800000000     0.268080000000     0.0472135  
H523     H      0.355240000000     0.118520000000     0.298170000000     0.0471632  
H524     H      0.332610000000     0.120400000000     0.320890000000     0.0499561  
H525     H      0.319060000000     0.103110000000     0.343640000000     0.0500925  
H526     H      0.296410000000     0.101670000000     0.366330000000     0.0469839  
H527     H      0.255780000000     0.100910000000     0.326020000000     0.0467999  
H528     H      0.278250000000     0.103030000000     0.303440000000     0.0498972  
H529     H      0.369620000000     0.134110000000     0.155350000000     0.0501617  
H530     H      0.370960000000     0.111900000000     0.178350000000     0.0477462  
H531     H      0.362380000000     0.152230000000     0.217770000000     0.0467611  
H532     H      0.360600000000     0.174330000000     0.194790000000     0.0499025  
H533     H      0.351530000000     0.155390000000     0.139560000000     0.0500467  
H534     H      0.354940000000     0.177800000000     0.116850000000     0.047226   
H535     H      0.385090000000     0.210300000000     0.153400000000     0.0471994  
H536     H      0.382020000000     0.187910000000     0.175840000000     0.0501255  
H537     H      0.373220000000     0.002080000000     0.208010000000     0.0499744  
H538     H      0.372710000000     0.034310000000     0.209270000000     0.0470423  
H539     H      0.387680000000     0.032880000000     0.264250000000     0.0472212  
H540     H      0.387620000000     0.000940000000     0.263190000000     0.0497881  
H541     H      0.404790000000     0.977710000000     0.251470000000     0.0498053  
H542     H      0.405110000000     0.945770000000     0.252430000000     0.0467203  
H543     H      0.358950000000     0.943420000000     0.218580000000     0.0465126  
H544     H      0.358220000000     0.975650000000     0.218090000000     0.0500012  
H545     H      0.609270000000     0.173260000000     0.194420000000     0.0497712  
H546     H      0.606660000000     0.150760000000     0.216880000000     0.0465855  
H547     H      0.591980000000     0.112310000000     0.177010000000     0.0471216  
H548     H      0.593910000000     0.135010000000     0.154510000000     0.0500461  
H549     H      0.612260000000     0.154800000000     0.138080000000     0.0499524  
H550     H      0.609530000000     0.177860000000     0.115970000000     0.0472701  
H551     H      0.587230000000     0.212620000000     0.155080000000     0.0473708  
H552     H      0.589380000000     0.189580000000     0.176890000000     0.0500181  
H553     H      0.671010000000     0.108930000000     0.286020000000     0.0497957  
H554     H      0.648060000000     0.106800000000     0.263470000000     0.046709   
H555     H      0.609200000000     0.095990000000     0.303350000000     0.0468597  
H556     H      0.632330000000     0.097400000000     0.325970000000     0.0499956  
H557     H      0.653270000000     0.115230000000     0.342120000000     0.0499772  
H558     H      0.676610000000     0.112590000000     0.364400000000     0.0472298  
H559     H      0.709950000000     0.087190000000     0.326090000000     0.0472956  
H560     H      0.686600000000     0.089210000000     0.304150000000     0.0499965  
H561     H      0.499100000000     0.116440000000     0.271580000000     0.0499997  
H562     H      0.531270000000     0.113200000000     0.270120000000     0.0471088  
H563     H      0.525800000000     0.090360000000     0.218030000000     0.0474468  
H564     H      0.493980000000     0.093170000000     0.219630000000     0.0501222  
H565     H      0.471340000000     0.114970000000     0.219400000000     0.049822   
H566     H      0.439250000000     0.113080000000     0.219060000000     0.0461004  
H567     H      0.439840000000     0.096930000000     0.273440000000     0.0466142  
H568     H      0.472190000000     0.098270000000     0.273650000000     0.0501517  
H569     H      0.672740000000     0.886880000000     0.294310000000     0.050111   
H570     H      0.650660000000     0.889600000000     0.271130000000     0.0471099  
H571     H      0.613820000000     0.858800000000     0.301550000000     0.0472881  
H572     H      0.636210000000     0.855650000000     0.324700000000     0.0501135  
H573     H      0.651190000000     0.873340000000     0.347050000000     0.050139   
H574     H      0.673680000000     0.874370000000     0.370280000000     0.0473543  
H575     H      0.714410000000     0.867830000000     0.331320000000     0.0467259  
H576     H      0.691970000000     0.866270000000     0.308190000000     0.0498619  
H577     H      0.499710000000     0.860130000000     0.221640000000     0.0497161  
H578     H      0.531790000000     0.862230000000     0.221650000000     0.0460703  
H579     H      0.531280000000     0.882190000000     0.275070000000     0.0465968  
H580     H      0.498950000000     0.880610000000     0.274890000000     0.050103   
H581     H      0.472230000000     0.862100000000     0.273480000000     0.0499829  
H582     H      0.440040000000     0.865130000000     0.271570000000     0.0470536  
H583     H      0.444970000000     0.884220000000     0.218400000000     0.0472952  
H584     H      0.476810000000     0.881620000000     0.220430000000     0.0500982  
H585     H      0.598790000000     0.973730000000     0.209500000000     0.0499864  
H586     H      0.599330000000     0.941540000000     0.211370000000     0.0469048  
H587     H      0.584910000000     0.944960000000     0.266180000000     0.0470247  
H588     H      0.584910000000     0.976870000000     0.264510000000     0.0498403  
H589     H      0.567260000000     0.999360000000     0.252010000000     0.0492834  
H590     H      0.566510000000     0.031300000000     0.252300000000     0.0471782  
H591     H      0.612530000000     0.032990000000     0.219070000000     0.0466917  
H592     H      0.613650000000     0.000750000000     0.219230000000     0.0499712  
H593     H      0.782590000000     0.597090000000     0.179770000000     0.0501107  
H594     H      0.758750000000     0.595580000000     0.158170000000     0.0472342  
H595     H      0.794910000000     0.611640000000     0.117490000000     0.0474691  
H596     H      0.818820000000     0.613580000000     0.139310000000     0.0500455  
H597     H      0.836380000000     0.593430000000     0.156740000000     0.0502813  
H598     H      0.859570000000     0.590560000000     0.179040000000     0.0465212  
H599     H      0.825130000000     0.613450000000     0.217940000000     0.046515   
H600     H      0.802140000000     0.616770000000     0.195600000000     0.05002    
H601     H      0.781510000000     0.613170000000     0.809720000000     0.0496338  
H602     H      0.758440000000     0.610070000000     0.831610000000     0.0462542  
H603     H      0.797270000000     0.593780000000     0.870010000000     0.0466879  
H604     H      0.820330000000     0.596010000000     0.847890000000     0.0498836  
H605     H      0.838020000000     0.614010000000     0.829760000000     0.0497992  
H606     H      0.860720000000     0.611570000000     0.807220000000     0.0468931  
H607     H      0.821310000000     0.593070000000     0.769790000000     0.0469917  
H608     H      0.798850000000     0.594710000000     0.792330000000     0.0497922  
H609     H      0.714840000000     0.580510000000     0.981980000000     0.0499083  
H610     H      0.714060000000     0.578990000000     0.950110000000     0.0473147  
H611     H      0.758550000000     0.614960000000     0.947820000000     0.0467729  
H612     H      0.759010000000     0.616930000000     0.980050000000     0.0500082  
H613     H      0.765420000000     0.599790000000     0.006340000000     0.050124   
H614     H      0.764970000000     0.599070000000     0.038550000000     0.0467551  
H615     H      0.707880000000     0.599150000000     0.037180000000     0.0466068  
H616     H      0.708290000000     0.600470000000     0.005260000000     0.0498557  
H617     H      0.689900000000     0.301370000000     0.111030000000     0.0498048  
H618     H      0.712550000000     0.324170000000     0.108710000000     0.0466696  
H619     H      0.672150000000     0.363160000000     0.100370000000     0.0471977  
H620     H      0.649430000000     0.340210000000     0.102020000000     0.0501012  
H621     H      0.634160000000     0.319280000000     0.120040000000     0.0498803  
H622     H      0.611490000000     0.296190000000     0.117640000000     0.0472975  
H623     H      0.648130000000     0.263060000000     0.089640000000     0.0473389  
H624     H      0.670450000000     0.286160000000     0.091480000000     0.0499604  
H625     H      0.821730000000     0.378600000000     0.137970000000     0.0500457  
H626     H      0.798850000000     0.378900000000     0.115030000000     0.0471121  
H627     H      0.758630000000     0.374120000000     0.154770000000     0.046933   
H628     H      0.781380000000     0.373260000000     0.177550000000     0.0499608  
H629     H      0.801350000000     0.394050000000     0.190830000000     0.0500238  
H630     H      0.823280000000     0.396170000000     0.214270000000     0.0471158  
H631     H      0.858810000000     0.363880000000     0.183950000000     0.0469259  
H632     H      0.836510000000     0.361330000000     0.160490000000     0.0500545  
H633     H      0.701160000000     0.501020000000     0.101530000000     0.0500895  
H634     H      0.701610000000     0.533300000000     0.101610000000     0.0467376  
H635     H      0.758710000000     0.532870000000     0.101810000000     0.0468182  
H636     H      0.758290000000     0.500910000000     0.102280000000     0.0499262  
H637     H      0.751270000000     0.477850000000     0.081770000000     0.0500305  
H638     H      0.752500000000     0.445970000000     0.080290000000     0.0472408  
H639     H      0.709010000000     0.442340000000     0.116610000000     0.0468804  
H640     H      0.708080000000     0.474570000000     0.118500000000     0.0499981  
H641     H      0.781500000000     0.384040000000     0.804450000000     0.0500084  
H642     H      0.758340000000     0.385980000000     0.826230000000     0.0472398  
H643     H      0.791180000000     0.358440000000     0.863580000000     0.0473203  
H644     H      0.814340000000     0.355940000000     0.841450000000     0.0498889  
H645     H      0.835540000000     0.374190000000     0.826590000000     0.0500732  
H646     H      0.858600000000     0.376300000000     0.804400000000     0.0470335  
H647     H      0.819540000000     0.367230000000     0.763430000000     0.0465897  
H648     H      0.796640000000     0.364450000000     0.785540000000     0.0498636  
H649     H      0.685430000000     0.299520000000     0.872890000000     0.0499753  
H650     H      0.708850000000     0.321720000000     0.873800000000     0.0468675  
H651     H      0.669720000000     0.362810000000     0.875340000000     0.0476836  
H652     H      0.646210000000     0.340520000000     0.874840000000     0.0501251  
H653     H      0.664560000000     0.288800000000     0.894310000000     0.0501865  
H654     H      0.641640000000     0.266480000000     0.897490000000     0.0471683  
H655     H      0.608100000000     0.294640000000     0.861230000000     0.0470281  
H656     H      0.631330000000     0.316970000000     0.857760000000     0.0500514  
H657     H      0.710200000000     0.370800000000     0.978130000000     0.0498991  
H658     H      0.709210000000     0.371860000000     0.946200000000     0.0464708  
H659     H      0.765990000000     0.378150000000     0.945030000000     0.0466163  
H660     H      0.766950000000     0.377640000000     0.977270000000     0.0501386  
H661     H      0.762270000000     0.360060000000     0.003870000000     0.0499942  
H662     H      0.761890000000     0.362430000000     0.036080000000     0.0469193  
H663     H      0.714730000000     0.393980000000     0.032850000000     0.047448   
H664     H      0.715360000000     0.392030000000     0.001020000000     0.0500503  
H665     H      0.701180000000     0.473510000000     0.878890000000     0.0501037  
H666     H      0.701610000000     0.441250000000     0.879260000000     0.0467749  
H667     H      0.758480000000     0.442720000000     0.884750000000     0.0467618  
H668     H      0.758150000000     0.474660000000     0.883770000000     0.0498046  
H669     H      0.749740000000     0.497960000000     0.902900000000     0.0498853  
H670     H      0.750720000000     0.529850000000     0.904100000000     0.0472787  
H671     H      0.709850000000     0.532110000000     0.864130000000     0.0466986  
H672     H      0.709230000000     0.499840000000     0.862490000000     0.0500318  
H673     H      0.280050000000     0.673800000000     0.098910000000     0.0499536  
H674     H      0.257540000000     0.650780000000     0.098420000000     0.0470845  
H675     H      0.298110000000     0.611160000000     0.100520000000     0.0468819  
H676     H      0.320830000000     0.634300000000     0.100420000000     0.0500631  
H677     H      0.334330000000     0.658570000000     0.116790000000     0.0500972  
H678     H      0.356410000000     0.682200000000     0.114620000000     0.0469776  
H679     H      0.322900000000     0.709020000000     0.077320000000     0.0469038  
H680     H      0.301240000000     0.685340000000     0.079050000000     0.0499962  
H681     H      0.356670000000     0.823340000000     0.137020000000     0.0498673  
H682     H      0.358520000000     0.800510000000     0.114290000000     0.0470006  
H683     H      0.376630000000     0.763510000000     0.153230000000     0.0470413  
H684     H      0.375530000000     0.786360000000     0.175730000000     0.0499066  
H685     H      0.357600000000     0.804370000000     0.193240000000     0.0496184  
H686     H      0.361690000000     0.826700000000     0.216140000000     0.0462976  
H687     H      0.379080000000     0.864000000000     0.177200000000     0.0470281  
H688     H      0.375800000000     0.841460000000     0.154330000000     0.0499497  
H689     H      0.380750000000     0.824160000000     0.841170000000     0.0501249  
H690     H      0.382120000000     0.802230000000     0.864450000000     0.0466147  
H691     H      0.362900000000     0.762380000000     0.827930000000     0.0468825  
H692     H      0.360980000000     0.784340000000     0.804850000000     0.049955   
H693     H      0.381300000000     0.800420000000     0.787160000000     0.0500202  
H694     H      0.383260000000     0.821630000000     0.763500000000     0.0471029  
H695     H      0.364220000000     0.862440000000     0.798330000000     0.0474357  
H696     H      0.361760000000     0.840990000000     0.822020000000     0.0499358  
H697     H      0.336420000000     0.653330000000     0.882220000000     0.0502172  
H698     H      0.359320000000     0.676200000000     0.883660000000     0.0467318  
H699     H      0.319720000000     0.715900000000     0.874810000000     0.0472528  
H700     H      0.296960000000     0.693090000000     0.872930000000     0.0499904  
H701     H      0.282520000000     0.673550000000     0.893110000000     0.0501518  
H702     H      0.259440000000     0.651130000000     0.894290000000     0.0471118  
H703     H      0.292110000000     0.615450000000     0.864510000000     0.0473999  
H704     H      0.315180000000     0.638150000000     0.862970000000     0.0500498  
H705     H      0.349250000000     0.750020000000     0.977280000000     0.0503918  
H706     H      0.348910000000     0.747660000000     0.945190000000     0.0465213  
H707     H      0.403090000000     0.766090000000     0.943980000000     0.0465239  
H708     H      0.403380000000     0.768490000000     0.976040000000     0.0499801  
H709     H      0.402710000000     0.744850000000     0.998770000000     0.0501748  
H710     H      0.403720000000     0.740700000000     0.030500000000     0.0464615  
H711     H      0.353340000000     0.766570000000     0.035400000000     0.0469757  
H712     H      0.352320000000     0.770710000000     0.003450000000     0.0501302  
H713     H      0.589980000000     0.787070000000     0.179800000000     0.050124   
H714     H      0.586140000000     0.763900000000     0.157840000000     0.0472956  
H715     H      0.610610000000     0.797020000000     0.118850000000     0.0473669  
H716     H      0.614880000000     0.820230000000     0.141080000000     0.0499002  
H717     H      0.611890000000     0.802490000000     0.197060000000     0.0498415  
H718     H      0.610620000000     0.825140000000     0.219910000000     0.0465598  
H719     H      0.596600000000     0.863690000000     0.180810000000     0.0476227  
H720     H      0.597350000000     0.840890000000     0.157970000000     0.0500731  
H721     H      0.630880000000     0.651950000000     0.105780000000     0.0500577  
H722     H      0.608010000000     0.674330000000     0.103700000000     0.0470692  
H723     H      0.646340000000     0.714490000000     0.118260000000     0.0462954  
H724     H      0.669020000000     0.692120000000     0.121030000000     0.0498128  
H725     H      0.685350000000     0.674840000000     0.100950000000     0.0500573  
H726     H      0.708540000000     0.653180000000     0.098230000000     0.0473358  
H727     H      0.674230000000     0.613610000000     0.120550000000     0.04732    
H728     H      0.651010000000     0.635590000000     0.123860000000     0.0499121  
H729     H      0.495810000000     0.710040000000     0.115430000000     0.050144   
H730     H      0.528180000000     0.710240000000     0.114530000000     0.0471834  
H731     H      0.527110000000     0.759490000000     0.086460000000     0.0470695  
H732     H      0.495030000000     0.759120000000     0.087070000000     0.0499885  
H733     H      0.471570000000     0.762640000000     0.108230000000     0.0498009  
H734     H      0.439510000000     0.763820000000     0.106310000000     0.0465998  
H735     H      0.437440000000     0.708140000000     0.094060000000     0.047103   
H736     H      0.469740000000     0.707030000000     0.095630000000     0.0502345  
H737     H      0.608910000000     0.819260000000     0.850080000000     0.0500424  
H738     H      0.605490000000     0.795690000000     0.871620000000     0.0470895  
H739     H      0.582030000000     0.762190000000     0.831330000000     0.0471765  
H740     H      0.585090000000     0.785680000000     0.810060000000     0.0501298  
H741     H      0.607540000000     0.801330000000     0.794020000000     0.0501637  
H742     H      0.607020000000     0.823870000000     0.771460000000     0.0469523  
H743     H      0.590780000000     0.862380000000     0.810150000000     0.0464692  
H744     H      0.590870000000     0.839620000000     0.832740000000     0.0501646  
H745     H      0.629980000000     0.651730000000     0.866310000000     0.0498418  
H746     H      0.607530000000     0.674480000000     0.869190000000     0.0469731  
H747     H      0.647290000000     0.711050000000     0.888710000000     0.0469206  
H748     H      0.669490000000     0.688280000000     0.886610000000     0.049884   
H749     H      0.686660000000     0.671130000000     0.867690000000     0.0495913  
H750     H      0.709500000000     0.648920000000     0.870380000000     0.0462616  
H751     H      0.670240000000     0.610570000000     0.885800000000     0.0468039  
H752     H      0.647410000000     0.632980000000     0.883980000000     0.0498502  
H753     H      0.496800000000     0.707500000000     0.860730000000     0.0502191  
H754     H      0.529040000000     0.710630000000     0.862630000000     0.0468047  
H755     H      0.524170000000     0.735520000000     0.913700000000     0.0463295  
H756     H      0.492150000000     0.732370000000     0.911810000000     0.0503303  
H757     H      0.468270000000     0.709330000000     0.911000000000     0.0500429  
H758     H      0.436200000000     0.712410000000     0.910080000000     0.0465647  
H759     H      0.439420000000     0.732060000000     0.856970000000     0.046403   
H760     H      0.471530000000     0.729000000000     0.857960000000     0.0504933  
H761     H      0.588140000000     0.767390000000     0.981440000000     0.0499644  
H762     H      0.586530000000     0.766480000000     0.949270000000     0.0471317  
H763     H      0.603860000000     0.712410000000     0.949680000000     0.0463862  
H764     H      0.605970000000     0.713460000000     0.981620000000     0.049674   
H765     H      0.584980000000     0.713960000000     0.004980000000     0.0499868  
H766     H      0.583500000000     0.713300000000     0.036840000000     0.0472788  
H767     H      0.605370000000     0.766030000000     0.039750000000     0.0469884  
H768     H      0.607280000000     0.766540000000     0.007570000000     0.0499893  
O1       O      0.595640000000     0.704500000000     0.881220000000    -0.231772   
O2       O      0.589130000000     0.751310000000     0.918240000000    -0.228948   
O3       O      0.558940000000     0.719370000000     0.878340000000    -0.231015   
O4       O      0.584420000000     0.748080000000     0.861510000000    -0.240551   
O5       O      0.595770000000     0.764310000000     0.882030000000    -0.232583   
O6       O      0.555280000000     0.736880000000     0.900340000000    -0.239698   
O7       O      0.616140000000     0.723780000000     0.886180000000    -0.239256   
O8       O      0.592550000000     0.723230000000     0.919820000000    -0.23868    
O9       O      0.599040000000     0.766530000000     0.107190000000    -0.230435   
O10      O      0.596000000000     0.706580000000     0.104940000000    -0.231379   
O11      O      0.596860000000     0.752060000000     0.070110000000    -0.230657   
O12      O      0.557870000000     0.747910000000     0.092560000000    -0.24069    
O13      O      0.559210000000     0.723360000000     0.106450000000    -0.230689   
O14      O      0.586590000000     0.725620000000     0.067780000000    -0.240464   
O15      O      0.587620000000     0.750170000000     0.127210000000    -0.239581   
O16      O      0.616950000000     0.725940000000     0.105270000000    -0.239929   
O17      O      0.371110000000     0.708530000000     0.883630000000    -0.236355   
O18      O      0.378860000000     0.770680000000     0.877410000000    -0.236917   
O19      O      0.408900000000     0.735670000000     0.871850000000    -0.237253   
O20      O      0.364530000000     0.743990000000     0.915160000000    -0.2367     
O21      O      0.390480000000     0.755560000000     0.914090000000    -0.235223   
O22      O      0.406880000000     0.723590000000     0.897220000000    -0.235207   
O23      O      0.350670000000     0.727980000000     0.882140000000    -0.234432   
O24      O      0.373590000000     0.750700000000     0.857800000000    -0.23605    
O25      O      0.369460000000     0.711560000000     0.101950000000    -0.232748   
O26      O      0.368060000000     0.756650000000     0.065080000000    -0.22981    
O27      O      0.408960000000     0.752110000000     0.097640000000    -0.239288   
O28      O      0.374540000000     0.751110000000     0.121820000000    -0.239419   
O29      O      0.369640000000     0.770420000000     0.101870000000    -0.232046   
O30      O      0.406810000000     0.723940000000     0.094670000000    -0.229819   
O31      O      0.350930000000     0.725900000000     0.086160000000    -0.240591   
O32      O      0.389610000000     0.738810000000     0.061100000000    -0.238937   
O33      O      0.702380000000     0.373640000000     0.877910000000    -0.230265   
O34      O      0.749870000000     0.376790000000     0.913990000000    -0.231342   
O35      O      0.717300000000     0.410310000000     0.879970000000    -0.230687   
O36      O      0.744690000000     0.382240000000     0.856480000000    -0.239953   
O37      O      0.761480000000     0.370420000000     0.876060000000    -0.230685   
O38      O      0.744450000000     0.412310000000     0.888440000000    -0.240604   
O39      O      0.721170000000     0.352660000000     0.880500000000    -0.239302   
O40      O      0.721780000000     0.379940000000     0.916180000000    -0.24109    
O41      O      0.704620000000     0.375220000000     0.100790000000    -0.231376   
O42      O      0.766150000000     0.378410000000     0.103230000000    -0.231447   
O43      O      0.720850000000     0.412050000000     0.104480000000    -0.230585   
O44      O      0.724900000000     0.387580000000     0.063880000000    -0.239914   
O45      O      0.749520000000     0.373830000000     0.066480000000    -0.230641   
O46      O      0.744460000000     0.414830000000     0.089130000000    -0.239982   
O47      O      0.723950000000     0.354660000000     0.098960000000    -0.239276   
O48      O      0.747040000000     0.381300000000     0.123860000000    -0.239382   
O49      O      0.720330000000     0.562820000000     0.877410000000    -0.231457   
O50      O      0.747180000000     0.602390000000     0.917210000000    -0.231016   
O51      O      0.702640000000     0.598750000000     0.882800000000    -0.231672   
O52      O      0.745860000000     0.596530000000     0.860250000000    -0.238701   
O53      O      0.764770000000     0.596950000000     0.881600000000    -0.231911   
O54      O      0.721740000000     0.619960000000     0.883510000000    -0.238629   
O55      O      0.743070000000     0.560670000000     0.894410000000    -0.240299   
O56      O      0.723360000000     0.586900000000     0.919280000000    -0.239993   
O57      O      0.763180000000     0.603340000000     0.106560000000    -0.230565   
O58      O      0.717290000000     0.564560000000     0.102330000000    -0.23097    
O59      O      0.749340000000     0.599110000000     0.069470000000    -0.230883   
O60      O      0.721790000000     0.622550000000     0.099570000000    -0.240173   
O61      O      0.704470000000     0.602070000000     0.108920000000    -0.230816   
O62      O      0.721590000000     0.592990000000     0.067370000000    -0.240695   
O63      O      0.745610000000     0.595130000000     0.127130000000    -0.239802   
O64      O      0.745090000000     0.563010000000     0.096910000000    -0.240931   
O65      O      0.601200000000     0.871180000000     0.272130000000    -0.231774   
O66      O      0.597020000000     0.911290000000     0.227910000000    -0.231068   
O67      O      0.562810000000     0.879000000000     0.260790000000    -0.231429   
O68      O      0.599540000000     0.854710000000     0.232310000000    -0.238294   
O69      O      0.597250000000     0.875290000000     0.213110000000    -0.229473   
O70      O      0.561150000000     0.875670000000     0.232730000000    -0.240776   
O71      O      0.620270000000     0.885450000000     0.256800000000    -0.239896   
O72      O      0.585800000000     0.913730000000     0.253700000000    -0.24006    
O73      O      0.596920000000     0.097930000000     0.270980000000    -0.231737   
O74      O      0.593700000000     0.100410000000     0.209240000000    -0.231426   
O75      O      0.560940000000     0.103220000000     0.255360000000    -0.230087   
O76      O      0.579450000000     0.061970000000     0.247710000000    -0.240399   
O77      O      0.598620000000     0.063870000000     0.227090000000    -0.232116   
O78      O      0.557240000000     0.091930000000     0.229490000000    -0.239313   
O79      O      0.617600000000     0.096290000000     0.251780000000    -0.238565   
O80      O      0.594490000000     0.121290000000     0.228620000000    -0.238956   
O81      O      0.374780000000     0.065140000000     0.225400000000    -0.230375   
O82      O      0.369310000000     0.105560000000     0.269480000000    -0.231314   
O83      O      0.372650000000     0.101230000000     0.210730000000    -0.229783   
O84      O      0.409990000000     0.100210000000     0.230310000000    -0.240903   
O85      O      0.408230000000     0.099440000000     0.258510000000    -0.231132   
O86      O      0.372020000000     0.122270000000     0.229920000000    -0.238626   
O87      O      0.386210000000     0.063640000000     0.251350000000    -0.240117   
O88      O      0.351060000000     0.090180000000     0.253620000000    -0.240127   
O89      O      0.372620000000     0.912750000000     0.227150000000    -0.23234    
O90      O      0.410220000000     0.874050000000     0.256080000000    -0.230207   
O91      O      0.377210000000     0.876270000000     0.209400000000    -0.231555   
O92      O      0.353500000000     0.881070000000     0.251570000000    -0.238555   
O93      O      0.374210000000     0.879000000000     0.271030000000    -0.231564   
O94      O      0.375790000000     0.855560000000     0.228540000000    -0.238837   
O95      O      0.391840000000     0.915020000000     0.248050000000    -0.240782   
O96      O      0.413690000000     0.883910000000     0.229860000000    -0.239411   
O97      O      0.376980000000     0.203710000000     0.879740000000    -0.237042   
O98      O      0.406510000000     0.249920000000     0.895830000000    -0.235381   
O99      O      0.361690000000     0.235280000000     0.915670000000    -0.236944   
O100     O      0.348810000000     0.248340000000     0.884210000000    -0.232038   
O101     O      0.370520000000     0.266500000000     0.881090000000    -0.235852   
O102     O      0.386350000000     0.221550000000     0.916270000000    -0.233463   
O103     O      0.366980000000     0.221760000000     0.860540000000    -0.23607    
O104     O      0.404810000000     0.238250000000     0.870010000000    -0.238967   
O105     O      0.374710000000     0.216930000000     0.066730000000    -0.229733   
O106     O      0.406810000000     0.250620000000     0.103370000000    -0.230983   
O107     O      0.366670000000     0.207510000000     0.104150000000    -0.231819   
O108     O      0.350030000000     0.247450000000     0.101750000000    -0.239138   
O109     O      0.370450000000     0.266900000000     0.097830000000    -0.231427   
O110     O      0.381630000000     0.223260000000     0.122750000000    -0.239583   
O111     O      0.371830000000     0.244860000000     0.063280000000    -0.238859   
O112     O      0.409150000000     0.229410000000     0.084640000000    -0.240425   
O113     O      0.594390000000     0.265720000000     0.873950000000    -0.232163   
O114     O      0.586280000000     0.206690000000     0.878250000000    -0.232338   
O115     O      0.556600000000     0.257000000000     0.883540000000    -0.230598   
O116     O      0.572530000000     0.242650000000     0.916840000000    -0.239706   
O117     O      0.593220000000     0.223620000000     0.914290000000    -0.231339   
O118     O      0.552940000000     0.229600000000     0.876970000000    -0.238649   
O119     O      0.611560000000     0.252170000000     0.891900000000    -0.239605   
O120     O      0.594210000000     0.225790000000     0.859050000000    -0.239008   
O121     O      0.598340000000     0.266330000000     0.105780000000    -0.231323   
O122     O      0.593070000000     0.220960000000     0.066640000000    -0.230035   
O123     O      0.559970000000     0.253660000000     0.100850000000    -0.230332   
O124     O      0.589390000000     0.225750000000     0.124450000000    -0.239975   
O125     O      0.598500000000     0.208150000000     0.104160000000    -0.230997   
O126     O      0.557440000000     0.226110000000     0.094310000000    -0.240777   
O127     O      0.617670000000     0.249310000000     0.094090000000    -0.240147   
O128     O      0.584360000000     0.247790000000     0.064610000000    -0.240381   
O129     O      0.098490000000     0.374020000000     0.211040000000    -0.230564   
O130     O      0.096690000000     0.376730000000     0.270860000000    -0.231388   
O131     O      0.061190000000     0.376630000000     0.224920000000    -0.230562   
O132     O      0.083870000000     0.415150000000     0.230410000000    -0.240554   
O133     O      0.098980000000     0.413360000000     0.254460000000    -0.230432   
O134     O      0.059320000000     0.385690000000     0.251740000000    -0.240397   
O135     O      0.118600000000     0.386240000000     0.227370000000    -0.239914   
O136     O      0.096440000000     0.355940000000     0.251410000000    -0.239845   
O137     O      0.908720000000     0.384210000000     0.226400000000    -0.229168   
O138     O      0.872870000000     0.376100000000     0.273750000000    -0.232251   
O139     O      0.871450000000     0.375540000000     0.214220000000    -0.233019   
O140     O      0.892490000000     0.416410000000     0.243130000000    -0.23872    
O141     O      0.869420000000     0.412520000000     0.258970000000    -0.23032    
O142     O      0.852510000000     0.389700000000     0.229590000000    -0.240554   
O143     O      0.910880000000     0.378250000000     0.254000000000    -0.238662   
O144     O      0.876120000000     0.355800000000     0.254140000000    -0.238815   
O145     O      0.873230000000     0.599020000000     0.271970000000    -0.235505   
O146     O      0.872640000000     0.592470000000     0.210750000000    -0.238455   
O147     O      0.890550000000     0.564370000000     0.259140000000    -0.234276   
O148     O      0.909890000000     0.578200000000     0.229620000000    -0.235721   
O149     O      0.910740000000     0.605890000000     0.235580000000    -0.232437   
O150     O      0.867050000000     0.561820000000     0.243150000000    -0.237146   
O151     O      0.885390000000     0.619240000000     0.256440000000    -0.232986   
O152     O      0.854060000000     0.600750000000     0.230270000000    -0.239218   
O153     O      0.099450000000     0.603340000000     0.267060000000    -0.232214   
O154     O      0.061470000000     0.601990000000     0.221880000000    -0.229898   
O155     O      0.093380000000     0.565530000000     0.254770000000    -0.229469   
O156     O      0.118970000000     0.597440000000     0.227360000000    -0.239546   
O157     O      0.098470000000     0.602410000000     0.208280000000    -0.231722   
O158     O      0.093320000000     0.563140000000     0.226490000000    -0.23949    
O159     O      0.084780000000     0.621750000000     0.251490000000    -0.240878   
O160     O      0.058310000000     0.583140000000     0.242610000000    -0.239603   
O161     O      0.251170000000     0.564100000000     0.879850000000    -0.23058    
O162     O      0.202510000000     0.596840000000     0.876930000000    -0.230091   
O163     O      0.262000000000     0.602360000000     0.874700000000    -0.231979   
O164     O      0.242120000000     0.583590000000     0.915590000000    -0.240471   
O165     O      0.217510000000     0.597380000000     0.913460000000    -0.231077   
O166     O      0.245870000000     0.620620000000     0.889090000000    -0.240118   
O167     O      0.222930000000     0.561470000000     0.877660000000    -0.240636   
O168     O      0.222110000000     0.600210000000     0.856810000000    -0.238497   
O169     O      0.265330000000     0.599170000000     0.100280000000    -0.232128   
O170     O      0.203810000000     0.594200000000     0.102280000000    -0.231492   
O171     O      0.252550000000     0.562390000000     0.098850000000    -0.228607   
O172     O      0.237580000000     0.577200000000     0.063510000000    -0.24101    
O173     O      0.220740000000     0.599700000000     0.065550000000    -0.232984   
O174     O      0.224500000000     0.560140000000     0.102860000000    -0.238232   
O175     O      0.246510000000     0.619120000000     0.093580000000    -0.238732   
O176     O      0.223780000000     0.598650000000     0.122270000000    -0.238151   
O177     O      0.203530000000     0.375850000000     0.102320000000    -0.231372   
O178     O      0.250370000000     0.410190000000     0.103380000000    -0.231029   
O179     O      0.218960000000     0.375470000000     0.065510000000    -0.230367   
O180     O      0.245700000000     0.352830000000     0.094440000000    -0.23909    
O181     O      0.263680000000     0.372960000000     0.104040000000    -0.230219   
O182     O      0.245880000000     0.384690000000     0.063960000000    -0.240333   
O183     O      0.222930000000     0.376880000000     0.123180000000    -0.239888   
O184     O      0.224520000000     0.413280000000     0.091950000000    -0.240853   
O185     O      0.221890000000     0.372920000000     0.913000000000    -0.23233    
O186     O      0.250350000000     0.411910000000     0.874840000000    -0.230491   
O187     O      0.204400000000     0.378100000000     0.876570000000    -0.231333   
O188     O      0.246990000000     0.355450000000     0.879170000000    -0.238743   
O189     O      0.266510000000     0.376170000000     0.881310000000    -0.232338   
O190     O      0.223540000000     0.379930000000     0.855830000000    -0.238653   
O191     O      0.243130000000     0.391730000000     0.915950000000    -0.24018    
O192     O      0.224970000000     0.414930000000     0.887030000000    -0.239656   
O193     O      0.877210000000     0.703340000000     0.607170000000    -0.235215   
O194     O      0.871130000000     0.765600000000     0.601720000000    -0.236459   
O195     O      0.886200000000     0.716670000000     0.571380000000    -0.234133   
O196     O      0.908980000000     0.738910000000     0.612560000000    -0.237741   
O197     O      0.906550000000     0.749390000000     0.586530000000    -0.236909   
O198     O      0.863240000000     0.733050000000     0.569850000000    -0.237232   
O199     O      0.875080000000     0.723050000000     0.627520000000    -0.235007   
O200     O      0.850810000000     0.746050000000     0.605610000000    -0.234856   
O201     O      0.095210000000     0.771690000000     0.598410000000    -0.232046   
O202     O      0.087590000000     0.723030000000     0.566180000000    -0.229094   
O203     O      0.058940000000     0.755090000000     0.605740000000    -0.232313   
O204     O      0.083450000000     0.727040000000     0.622620000000    -0.239069   
O205     O      0.095540000000     0.711020000000     0.602700000000    -0.2331     
O206     O      0.055180000000     0.738970000000     0.582630000000    -0.239453   
O207     O      0.114800000000     0.751960000000     0.603570000000    -0.238374   
O208     O      0.096590000000     0.749950000000     0.565010000000    -0.238604   
O209     O      0.863850000000     0.721520000000     0.420340000000    -0.236709   
O210     O      0.872110000000     0.764130000000     0.392970000000    -0.233218   
O211     O      0.874450000000     0.701780000000     0.384260000000    -0.233227   
O212     O      0.909230000000     0.723500000000     0.384530000000    -0.23781    
O213     O      0.907110000000     0.750990000000     0.391170000000    -0.229226   
O214     O      0.873510000000     0.721670000000     0.364220000000    -0.236058   
O215     O      0.891080000000     0.728640000000     0.424270000000    -0.240906   
O216     O      0.851570000000     0.745600000000     0.385930000000    -0.236223   
O217     O      0.097170000000     0.722930000000     0.414640000000    -0.230742   
O218     O      0.059500000000     0.753300000000     0.379180000000    -0.231215   
O219     O      0.094990000000     0.708110000000     0.377710000000    -0.230558   
O220     O      0.117270000000     0.749330000000     0.380900000000    -0.239025   
O221     O      0.096730000000     0.768790000000     0.380300000000    -0.230681   
O222     O      0.090030000000     0.727050000000     0.357340000000    -0.239048   
O223     O      0.087500000000     0.749330000000     0.417640000000    -0.240435   
O224     O      0.057340000000     0.727790000000     0.391060000000    -0.241187   
O225     O      0.097400000000     0.376010000000     0.708040000000    -0.231423   
O226     O      0.060580000000     0.382510000000     0.754850000000    -0.229238   
O227     O      0.097960000000     0.413010000000     0.721650000000    -0.230341   
O228     O      0.117320000000     0.389350000000     0.751260000000    -0.240916   
O229     O      0.098050000000     0.375890000000     0.766920000000    -0.232679   
O230     O      0.078790000000     0.416790000000     0.742030000000    -0.239348   
O231     O      0.091340000000     0.355930000000     0.726910000000    -0.23936    
O232     O      0.058070000000     0.380720000000     0.726630000000    -0.239117   
O233     O      0.869940000000     0.411470000000     0.727720000000    -0.230801   
O234     O      0.907860000000     0.374240000000     0.756070000000    -0.231087   
O235     O      0.871860000000     0.374520000000     0.711370000000    -0.230898   
O236     O      0.849900000000     0.378250000000     0.752760000000    -0.23926    
O237     O      0.870700000000     0.376070000000     0.772150000000    -0.231093   
O238     O      0.875640000000     0.353830000000     0.730230000000    -0.239423   
O239     O      0.882430000000     0.413580000000     0.753220000000    -0.240792   
O240     O      0.909670000000     0.387520000000     0.731250000000    -0.241097   
O241     O      0.879040000000     0.563520000000     0.729930000000    -0.228647   
O242     O      0.872910000000     0.599980000000     0.777140000000    -0.232142   
O243     O      0.873340000000     0.599960000000     0.717400000000    -0.232391   
O244     O      0.913290000000     0.580420000000     0.745110000000    -0.239535   
O245     O      0.910040000000     0.602930000000     0.762080000000    -0.230967   
O246     O      0.885500000000     0.619970000000     0.733710000000    -0.240228   
O247     O      0.876460000000     0.561510000000     0.758070000000    -0.238525   
O248     O      0.852610000000     0.595620000000     0.757530000000    -0.239644   
O249     O      0.088850000000     0.601060000000     0.706170000000    -0.237929   
O250     O      0.097030000000     0.600460000000     0.767740000000    -0.235867   
O251     O      0.103130000000     0.563810000000     0.732050000000    -0.233532   
O252     O      0.059080000000     0.606970000000     0.740410000000    -0.23702    
O253     O      0.062030000000     0.583230000000     0.755330000000    -0.234185   
O254     O      0.075630000000     0.564240000000     0.724870000000    -0.23527    
O255     O      0.095670000000     0.620810000000     0.725520000000    -0.238429   
O256     O      0.117570000000     0.592310000000     0.750160000000    -0.233307   
O257     O      0.202680000000     0.101470000000     0.380890000000    -0.231206   
O258     O      0.263720000000     0.100620000000     0.377730000000    -0.231094   
O259     O      0.219250000000     0.064380000000     0.376490000000    -0.232035   
O260     O      0.222310000000     0.096920000000     0.416760000000    -0.239081   
O261     O      0.250520000000     0.099580000000     0.414310000000    -0.229379   
O262     O      0.240370000000     0.062390000000     0.395420000000    -0.241448   
O263     O      0.222700000000     0.121750000000     0.379430000000    -0.239239   
O264     O      0.245050000000     0.093780000000     0.357200000000    -0.239122   
O265     O      0.205850000000     0.873960000000     0.373130000000    -0.230921   
O266     O      0.251280000000     0.878560000000     0.412470000000    -0.230425   
O267     O      0.218460000000     0.911720000000     0.378500000000    -0.230548   
O268     O      0.247210000000     0.884450000000     0.354850000000    -0.240424   
O269     O      0.264340000000     0.873690000000     0.374740000000    -0.231199   
O270     O      0.245430000000     0.914480000000     0.387400000000    -0.240657   
O271     O      0.223690000000     0.854030000000     0.382340000000    -0.239768   
O272     O      0.223410000000     0.883650000000     0.414240000000    -0.240668   
O273     O      0.249490000000     0.874080000000     0.564630000000    -0.230591   
O274     O      0.221490000000     0.911920000000     0.602510000000    -0.230627   
O275     O      0.266770000000     0.877270000000     0.601260000000    -0.232073   
O276     O      0.222470000000     0.854940000000     0.592160000000    -0.239443   
O277     O      0.206210000000     0.875500000000     0.602820000000    -0.230809   
O278     O      0.247450000000     0.876920000000     0.621860000000    -0.240255   
O279     O      0.226140000000     0.889960000000     0.562590000000    -0.240488   
O280     O      0.247210000000     0.914350000000     0.590900000000    -0.239936   
O281     O      0.265780000000     0.102090000000     0.603880000000    -0.230517   
O282     O      0.219600000000     0.064120000000     0.599330000000    -0.229688   
O283     O      0.251040000000     0.101300000000     0.566780000000    -0.23046    
O284     O      0.223360000000     0.121650000000     0.593860000000    -0.240703   
O285     O      0.206520000000     0.101740000000     0.604950000000    -0.231549   
O286     O      0.227230000000     0.085830000000     0.563870000000    -0.240311   
O287     O      0.247310000000     0.095600000000     0.624290000000    -0.239531   
O288     O      0.247880000000     0.062590000000     0.596840000000    -0.239747   
O289     O      0.062180000000     0.223790000000     0.379350000000    -0.230872   
O290     O      0.102080000000     0.268850000000     0.375610000000    -0.231153   
O291     O      0.099350000000     0.210540000000     0.374140000000    -0.230065   
O292     O      0.092780000000     0.227930000000     0.414810000000    -0.240435   
O293     O      0.096230000000     0.256050000000     0.413480000000    -0.230728   
O294     O      0.120260000000     0.228260000000     0.382470000000    -0.23944    
O295     O      0.060430000000     0.250910000000     0.387500000000    -0.240604   
O296     O      0.091040000000     0.251730000000     0.355540000000    -0.240341   
O297     O      0.872730000000     0.207500000000     0.380470000000    -0.231394   
O298     O      0.875970000000     0.269370000000     0.379180000000    -0.231875   
O299     O      0.909080000000     0.225270000000     0.376110000000    -0.232031   
O300     O      0.882440000000     0.227630000000     0.417550000000    -0.239609   
O301     O      0.870060000000     0.252870000000     0.414740000000    -0.230646   
O302     O      0.911580000000     0.246930000000     0.394400000000    -0.240387   
O303     O      0.851690000000     0.226410000000     0.381220000000    -0.238691   
O304     O      0.875360000000     0.250200000000     0.358140000000    -0.238384   
O305     O      0.873480000000     0.226150000000     0.564590000000    -0.240909   
O306     O      0.871370000000     0.206430000000     0.600950000000    -0.229597   
O307     O      0.867190000000     0.265370000000     0.605290000000    -0.231161   
O308     O      0.909690000000     0.247780000000     0.590220000000    -0.240553   
O309     O      0.907640000000     0.221620000000     0.600650000000    -0.230859   
O310     O      0.881570000000     0.249700000000     0.623980000000    -0.239948   
O311     O      0.874080000000     0.254370000000     0.566960000000    -0.231401   
O312     O      0.850540000000     0.225510000000     0.602760000000    -0.238462   
O313     O      0.094490000000     0.268140000000     0.601460000000    -0.231843   
O314     O      0.097390000000     0.206370000000     0.599250000000    -0.231666   
O315     O      0.099990000000     0.251660000000     0.565700000000    -0.230258   
O316     O      0.058570000000     0.245090000000     0.585560000000    -0.240146   
O317     O      0.060760000000     0.223760000000     0.603860000000    -0.231545   
O318     O      0.086750000000     0.226620000000     0.562440000000    -0.239466   
O319     O      0.093740000000     0.249190000000     0.622350000000    -0.23873    
O320     O      0.118370000000     0.225690000000     0.598480000000    -0.239168   
O321     O      0.705810000000     0.871270000000     0.609710000000    -0.230591   
O322     O      0.752080000000     0.909610000000     0.605860000000    -0.230704   
O323     O      0.719030000000     0.875860000000     0.572260000000    -0.230673   
O324     O      0.746540000000     0.851600000000     0.601360000000    -0.240173   
O325     O      0.764500000000     0.871550000000     0.611330000000    -0.231069   
O326     O      0.746580000000     0.882830000000     0.570550000000    -0.240884   
O327     O      0.724040000000     0.879380000000     0.630240000000    -0.239793   
O328     O      0.723990000000     0.911430000000     0.601650000000    -0.240826   
O329     O      0.749450000000     0.062170000000     0.604630000000    -0.230238   
O330     O      0.719870000000     0.098740000000     0.566630000000    -0.230455   
O331     O      0.763650000000     0.099160000000     0.604670000000    -0.230689   
O332     O      0.722870000000     0.095380000000     0.624190000000    -0.240564   
O333     O      0.703060000000     0.095030000000     0.603710000000    -0.23214    
O334     O      0.746230000000     0.119000000000     0.594530000000    -0.239514   
O335     O      0.723970000000     0.058740000000     0.592180000000    -0.239754   
O336     O      0.743370000000     0.083080000000     0.564710000000    -0.240186   
O337     O      0.719270000000     0.094870000000     0.414160000000    -0.230883   
O338     O      0.764820000000     0.100160000000     0.375100000000    -0.230975   
O339     O      0.706670000000     0.100760000000     0.376650000000    -0.230567   
O340     O      0.724710000000     0.059700000000     0.385140000000    -0.240337   
O341     O      0.752820000000     0.062200000000     0.381730000000    -0.230598   
O342     O      0.723920000000     0.090840000000     0.356530000000    -0.239508   
O343     O      0.747050000000     0.089540000000     0.416590000000    -0.240713   
O344     O      0.747510000000     0.119910000000     0.385640000000    -0.240087   
O345     O      0.721880000000     0.872470000000     0.419820000000    -0.230211   
O346     O      0.751740000000     0.909500000000     0.382320000000    -0.230114   
O347     O      0.705960000000     0.875050000000     0.382550000000    -0.232051   
O348     O      0.748490000000     0.852380000000     0.392660000000    -0.23991    
O349     O      0.766780000000     0.872510000000     0.384460000000    -0.231279   
O350     O      0.725660000000     0.876310000000     0.362350000000    -0.240275   
O351     O      0.745250000000     0.888690000000     0.422560000000    -0.239905   
O352     O      0.726520000000     0.912280000000     0.394890000000    -0.239819   
O353     O      0.373360000000     0.870260000000     0.708860000000    -0.230747   
O354     O      0.378920000000     0.909920000000     0.753940000000    -0.230911   
O355     O      0.411170000000     0.875630000000     0.720720000000    -0.231009   
O356     O      0.382040000000     0.852200000000     0.749900000000    -0.239854   
O357     O      0.373810000000     0.873070000000     0.767280000000    -0.230673   
O358     O      0.414460000000     0.882210000000     0.748150000000    -0.240766   
O359     O      0.353570000000     0.880040000000     0.726560000000    -0.239734   
O360     O      0.383710000000     0.911700000000     0.726150000000    -0.240689   
O361     O      0.411280000000     0.100560000000     0.726830000000    -0.230472   
O362     O      0.372970000000     0.062040000000     0.753590000000    -0.230955   
O363     O      0.374530000000     0.097110000000     0.709640000000    -0.232196   
O364     O      0.381700000000     0.119440000000     0.753750000000    -0.239393   
O365     O      0.373560000000     0.098070000000     0.770390000000    -0.230468   
O366     O      0.353780000000     0.096950000000     0.728800000000    -0.239919   
O367     O      0.413260000000     0.086920000000     0.751480000000    -0.240375   
O368     O      0.387620000000     0.060320000000     0.729510000000    -0.240236   
O369     O      0.563090000000     0.885620000000     0.727850000000    -0.231681   
O370     O      0.578350000000     0.910270000000     0.757660000000    -0.238906   
O371     O      0.598610000000     0.879220000000     0.715260000000    -0.234831   
O372     O      0.597210000000     0.853400000000     0.758790000000    -0.23423    
O373     O      0.593310000000     0.874010000000     0.777960000000    -0.235955   
O374     O      0.618830000000     0.874380000000     0.734630000000    -0.234836   
O375     O      0.561540000000     0.866360000000     0.748340000000    -0.237852   
O376     O      0.606020000000     0.910320000000     0.751860000000    -0.238445   
O377     O      0.600130000000     0.098490000000     0.774410000000    -0.231413   
O378     O      0.563670000000     0.091980000000     0.727440000000    -0.229147   
O379     O      0.602320000000     0.061550000000     0.759820000000    -0.230651   
O380     O      0.620560000000     0.086270000000     0.730770000000    -0.240303   
O381     O      0.600420000000     0.098170000000     0.714820000000    -0.232257   
O382     O      0.581900000000     0.057600000000     0.740290000000    -0.239467   
O383     O      0.596540000000     0.118550000000     0.754900000000    -0.239395   
O384     O      0.561940000000     0.093860000000     0.755670000000    -0.239276   


