data_structure

_audit_creation_method RASPA-1.0
_audit_creation_date 2023-5-22
_audit_author_name 'Poobodin Mano'

_cell_length_a    48.6014
_cell_length_b    48.6762
_cell_length_c    48.4959
_cell_angle_alpha 90.013
_cell_angle_beta  90.0823
_cell_angle_gamma 120.003
_cell_volume      99354.4

_symmetry_cell_setting          triclinic
_symmetry_space_group_name_Hall 'P 1'
_symmetry_space_group_name_H-M  'P 1'
_symmetry_Int_Tables_number     1

_symmetry_equiv_pos_as_xyz 'x,y,z'

loop_
_atom_site_label
_atom_site_type_symbol
_atom_site_fract_x
_atom_site_fract_y
_atom_site_fract_z
_atom_site_charge
C1       C      0.487180000000     0.419100000000     0.075880000000     0.287668   
C2       C      0.578500000000     0.421840000000     0.124370000000     0.288203   
C3       C      0.492110000000     0.424120000000     0.167930000000     0.287824   
C4       C      0.489320000000     0.332720000000     0.119490000000     0.288375   
C5       C      0.409740000000     0.497920000000     0.417850000000     0.288027   
C6       C      0.413110000000     0.589540000000     0.369240000000     0.288313   
C7       C      0.414680000000     0.503000000000     0.325760000000     0.287809   
C8       C      0.323620000000     0.500740000000     0.374610000000     0.288354   
C9       C      0.873190000000     0.420310000000     0.168020000000     0.287899   
C10      C      0.784530000000     0.422820000000     0.119310000000     0.288192   
C11      C      0.873540000000     0.425630000000     0.075960000000     0.287829   
C12      C      0.784970000000     0.333930000000     0.124030000000     0.28833    
C13      C      0.118500000000     0.590550000000     0.373950000000     0.288329   
C14      C      0.029430000000     0.498990000000     0.326330000000     0.287736   
C15      C      0.118370000000     0.501390000000     0.370020000000     0.288222   
C16      C      0.030010000000     0.504330000000     0.418300000000     0.287818   
C17      C      0.490330000000     0.128020000000     0.123860000000     0.288332   
C18      C      0.493580000000     0.039750000000     0.075150000000     0.287792   
C19      C      0.579740000000     0.128430000000     0.118740000000     0.288338   
C20      C      0.488560000000     0.039730000000     0.167220000000     0.287744   
C21      C      0.324580000000     0.795150000000     0.368250000000     0.288106   
C22      C      0.415960000000     0.883470000000     0.417150000000     0.28792    
C23      C      0.413790000000     0.795060000000     0.373720000000     0.288341   
C24      C      0.410910000000     0.883580000000     0.325020000000     0.287953   
C25      C      0.416910000000     0.945570000000     0.274240000000    -0.0560739  
C26      C      0.442450000000     0.949900000000     0.257560000000     0.021773   
C27      C      0.457000000000     0.931730000000     0.263030000000    -0.0561504  
C28      C      0.446630000000     0.910150000000     0.284850000000     0.0127508  
C29      C      0.421310000000     0.906030000000     0.301620000000    -0.0727997  
C30      C      0.406410000000     0.923810000000     0.296000000000     0.0124538  
C31      C      0.454140000000     0.973410000000     0.234680000000     0.0217376  
C32      C      0.432800000000     0.977540000000     0.217960000000    -0.0560007  
C33      C      0.443940000000     0.999300000000     0.196190000000     0.0122278  
C34      C      0.476630000000     0.017280000000     0.190620000000    -0.0726028  
C35      C      0.497970000000     0.013360000000     0.207440000000     0.0126887  
C36      C      0.486870000000     0.991790000000     0.229260000000    -0.0561347  
C37      C      0.487920000000     0.978020000000     0.024170000000    -0.0560972  
C38      C      0.462120000000     0.973360000000     0.007620000000     0.0217946  
C39      C      0.447280000000     0.991230000000     0.013230000000    -0.0562668  
C40      C      0.457630000000     0.012830000000     0.035070000000     0.0128202  
C41      C      0.483210000000     0.017280000000     0.051720000000    -0.0726624  
C42      C      0.498390000000     0.999810000000     0.045950000000     0.012322   
C43      C      0.450430000000     0.949800000000     0.484730000000     0.021752   
C44      C      0.471800000000     0.945970000000     0.467840000000    -0.0560601  
C45      C      0.460650000000     0.924190000000     0.446040000000     0.0123806  
C46      C      0.427920000000     0.905910000000     0.440610000000    -0.0727181  
C47      C      0.406570000000     0.909510000000     0.457610000000     0.0127197  
C48      C      0.417670000000     0.931100000000     0.479460000000    -0.0561397  
C49      C      0.178430000000     0.672730000000     0.348830000000    -0.0563657  
C50      C      0.198740000000     0.685210000000     0.371780000000     0.0217033  
C51      C      0.190690000000     0.667280000000     0.396220000000    -0.0561535  
C52      C      0.163790000000     0.637060000000     0.397300000000     0.0124061  
C53      C      0.144400000000     0.624020000000     0.373940000000    -0.0730428  
C54      C      0.151590000000     0.642440000000     0.349880000000     0.0126435  
C55      C      0.229400000000     0.715600000000     0.369700000000     0.0216091  
C56      C      0.248170000000     0.722650000000     0.345830000000    -0.0560862  
C57      C      0.278580000000     0.749310000000     0.344920000000     0.0123405  
C58      C      0.290990000000     0.769440000000     0.367900000000    -0.072905   
C59      C      0.271770000000     0.763240000000     0.391320000000     0.0125473  
C60      C      0.241290000000     0.736640000000     0.392190000000    -0.0562141  
C61      C      0.712970000000     0.257300000000     0.146530000000    -0.0561524  
C62      C      0.705190000000     0.238970000000     0.122310000000     0.0216722  
C63      C      0.725620000000     0.251190000000     0.099480000000    -0.0563235  
C64      C      0.752320000000     0.281590000000     0.100410000000     0.0126535  
C65      C      0.759230000000     0.300390000000     0.124220000000    -0.0730669  
C66      C      0.739720000000     0.287630000000     0.147490000000     0.012425   
C67      C      0.674650000000     0.208430000000     0.120290000000     0.0216728  
C68      C      0.662750000000     0.187750000000     0.142980000000    -0.0563729  
C69      C      0.632370000000     0.161000000000     0.142090000000     0.0126592  
C70      C      0.613260000000     0.154290000000     0.118470000000    -0.0730325  
C71      C      0.625700000000     0.174060000000     0.095320000000     0.012373   
C72      C      0.656020000000     0.200870000000     0.096240000000    -0.0560894  
C73      C      0.920550000000     0.466080000000     0.230590000000    -0.0561586  
C74      C      0.939350000000     0.452140000000     0.235850000000     0.0217671  
C75      C      0.935660000000     0.427080000000     0.218860000000    -0.0561036  
C76      C      0.913940000000     0.416460000000     0.196980000000     0.012404   
C77      C      0.895570000000     0.430790000000     0.191560000000    -0.0726936  
C78      C      0.899030000000     0.455620000000     0.208650000000     0.0127023  
C79      C      0.962860000000     0.464020000000     0.258810000000     0.0217326  
C80      C      0.980630000000     0.496690000000     0.264590000000    -0.0562861  
C81      C      0.002250000000     0.507960000000     0.286450000000     0.0128621  
C82      C      0.006850000000     0.486870000000     0.302940000000    -0.0724408  
C83      C      0.989470000000     0.454260000000     0.297030000000     0.0121472  
C84      C      0.967650000000     0.442940000000     0.275230000000    -0.0560042  
C85      C      0.921900000000     0.427930000000     0.014010000000    -0.0561311  
C86      C      0.940130000000     0.460650000000     0.008660000000     0.0217503  
C87      C      0.935770000000     0.481780000000     0.025400000000    -0.0560172  
C88      C      0.913910000000     0.470450000000     0.047120000000     0.0122889  
C89      C      0.896090000000     0.437770000000     0.052620000000    -0.0726646  
C90      C      0.900240000000     0.416650000000     0.035780000000     0.0126829  
C91      C      0.963720000000     0.472530000000     0.485830000000     0.0217789  
C92      C      0.982060000000     0.458170000000     0.480340000000    -0.0563696  
C93      C      0.003640000000     0.468630000000     0.458510000000     0.0129057  
C94      C      0.007600000000     0.493880000000     0.441750000000    -0.0724538  
C95      C      0.989690000000     0.508630000000     0.447410000000     0.0121089  
C96      C      0.967920000000     0.498020000000     0.469180000000    -0.0559736  
C97      C      0.417710000000     0.666040000000     0.346470000000    -0.0560537  
C98      C      0.428570000000     0.684550000000     0.370580000000     0.0216284  
C99      C      0.436990000000     0.672490000000     0.393420000000    -0.0562997  
C100     C      0.433210000000     0.642070000000     0.392610000000     0.0125811  
C101     C      0.421010000000     0.623090000000     0.368910000000    -0.0730274  
C102     C      0.414040000000     0.635690000000     0.345630000000     0.0123711  
C103     C      0.428670000000     0.715120000000     0.372490000000     0.0216771  
C104     C      0.437270000000     0.735640000000     0.349690000000    -0.0563486  
C105     C      0.433670000000     0.762380000000     0.350480000000     0.0126743  
C106     C      0.421490000000     0.769250000000     0.374100000000    -0.0730236  
C107     C      0.414340000000     0.749650000000     0.397350000000     0.0124212  
C108     C      0.417820000000     0.722850000000     0.396540000000    -0.0561712  
C109     C      0.240450000000     0.477110000000     0.350770000000    -0.0564034  
C110     C      0.228760000000     0.486130000000     0.373470000000     0.0216862  
C111     C      0.247600000000     0.497380000000     0.397400000000    -0.0561211  
C112     C      0.277890000000     0.500790000000     0.398190000000     0.012384   
C113     C      0.290120000000     0.493190000000     0.375030000000    -0.0730445  
C114     C      0.270830000000     0.480660000000     0.351530000000     0.0126989  
C115     C      0.198220000000     0.486200000000     0.371580000000     0.0217181  
C116     C      0.190220000000     0.496480000000     0.347310000000    -0.0561806  
C117     C      0.163450000000     0.500080000000     0.346430000000     0.0123948  
C118     C      0.144150000000     0.493620000000     0.369820000000    -0.0730517  
C119     C      0.151310000000     0.482020000000     0.393690000000     0.0126844  
C120     C      0.178010000000     0.478290000000     0.394540000000    -0.0563905  
C121     C      0.661430000000     0.445560000000     0.100030000000    -0.0563992  
C122     C      0.673610000000     0.437160000000     0.122810000000     0.0217171  
C123     C      0.655180000000     0.426320000000     0.146930000000    -0.0561835  
C124     C      0.624790000000     0.422670000000     0.147840000000     0.0124206  
C125     C      0.612080000000     0.429630000000     0.124620000000    -0.0729911  
C126     C      0.630970000000     0.441780000000     0.100910000000     0.0126403  
C127     C      0.704250000000     0.437330000000     0.120830000000     0.021597   
C128     C      0.711960000000     0.426570000000     0.096710000000    -0.0560225  
C129     C      0.738860000000     0.423200000000     0.095800000000     0.012274   
C130     C      0.758590000000     0.430380000000     0.119030000000    -0.0729005  
C131     C      0.751730000000     0.442460000000     0.142740000000     0.0125594  
C132     C      0.724890000000     0.445950000000     0.143610000000    -0.0563187  
C133     C      0.485120000000     0.256400000000     0.096650000000    -0.0561244  
C134     C      0.474620000000     0.237980000000     0.120790000000     0.0216338  
C135     C      0.466280000000     0.250030000000     0.143690000000    -0.0562901  
C136     C      0.469830000000     0.280350000000     0.142900000000     0.0126294  
C137     C      0.481670000000     0.299240000000     0.119160000000    -0.0730387  
C138     C      0.488530000000     0.286650000000     0.095830000000     0.0124353  
C139     C      0.474800000000     0.207550000000     0.122670000000     0.0217024  
C140     C      0.466190000000     0.186980000000     0.099880000000    -0.0563551  
C141     C      0.470030000000     0.160380000000     0.100640000000     0.0126881  
C142     C      0.482440000000     0.153690000000     0.124250000000    -0.0730641  
C143     C      0.489600000000     0.173340000000     0.147490000000     0.012443   
C144     C      0.485900000000     0.200010000000     0.146700000000    -0.0561536  
C145     C      0.455720000000     0.495650000000     0.480000000000    -0.056168   
C146     C      0.441140000000     0.462930000000     0.485390000000     0.0217512  
C147     C      0.415610000000     0.441800000000     0.468610000000    -0.056036   
C148     C      0.405150000000     0.453120000000     0.446810000000     0.0123961  
C149     C      0.420090000000     0.485790000000     0.441270000000    -0.072779   
C150     C      0.445400000000     0.506920000000     0.458150000000     0.0127522  
C151     C      0.452800000000     0.451050000000     0.008290000000     0.0217785  
C152     C      0.485530000000     0.465340000000     0.013820000000    -0.0561234  
C153     C      0.496610000000     0.454840000000     0.035680000000     0.0126896  
C154     C      0.475260000000     0.429620000000     0.052430000000    -0.0727179  
C155     C      0.442570000000     0.414960000000     0.046740000000     0.0124177  
C156     C      0.431440000000     0.425610000000     0.024940000000    -0.0560877  
C157     C      0.416210000000     0.456950000000     0.263470000000    -0.0561122  
C158     C      0.448960000000     0.470950000000     0.258240000000     0.0217427  
C159     C      0.470370000000     0.496120000000     0.275180000000    -0.0560284  
C160     C      0.459270000000     0.506800000000     0.296960000000     0.0124235  
C161     C      0.426560000000     0.492440000000     0.302340000000    -0.072788   
C162     C      0.405160000000     0.467490000000     0.285310000000     0.0127083  
C163     C      0.460600000000     0.459060000000     0.235360000000     0.021745   
C164     C      0.445740000000     0.426380000000     0.229660000000    -0.0560905  
C165     C      0.456090000000     0.415110000000     0.207850000000     0.0127037  
C166     C      0.481700000000     0.436210000000     0.191310000000    -0.0727496  
C167     C      0.496900000000     0.468840000000     0.197150000000     0.0124217  
C168     C      0.486420000000     0.480160000000     0.218900000000    -0.0560805  
C169     C      0.487180000000     0.419100000000     0.575890000000     0.287878   
C170     C      0.578500000000     0.421840000000     0.624370000000     0.2882     
C171     C      0.492110000000     0.424120000000     0.667930000000     0.28796    
C172     C      0.489320000000     0.332720000000     0.619490000000     0.288363   
C173     C      0.409740000000     0.497920000000     0.917850000000     0.288025   
C174     C      0.413110000000     0.589540000000     0.869240000000     0.288041   
C175     C      0.414680000000     0.503000000000     0.825760000000     0.287722   
C176     C      0.323620000000     0.500740000000     0.874610000000     0.288336   
C177     C      0.873190000000     0.420310000000     0.668020000000     0.287893   
C178     C      0.784530000000     0.422820000000     0.619310000000     0.287877   
C179     C      0.873540000000     0.425630000000     0.575960000000     0.287711   
C180     C      0.784960000000     0.333930000000     0.624040000000     0.288233   
C181     C      0.118500000000     0.590550000000     0.873950000000     0.288484   
C182     C      0.029430000000     0.498990000000     0.826330000000     0.287935   
C183     C      0.118370000000     0.501390000000     0.870020000000     0.288264   
C184     C      0.030010000000     0.504330000000     0.918300000000     0.287803   
C185     C      0.490330000000     0.128020000000     0.623860000000     0.288334   
C186     C      0.493580000000     0.039750000000     0.575150000000     0.287786   
C187     C      0.579740000000     0.128430000000     0.618740000000     0.28834    
C188     C      0.488560000000     0.039730000000     0.667220000000     0.287744   
C189     C      0.324580000000     0.795150000000     0.868250000000     0.288137   
C190     C      0.415960000000     0.883470000000     0.917150000000     0.287968   
C191     C      0.413790000000     0.795060000000     0.873720000000     0.288344   
C192     C      0.410900000000     0.883570000000     0.825010000000     0.2881     
C193     C      0.416910000000     0.945570000000     0.774240000000    -0.0560875  
C194     C      0.442440000000     0.949900000000     0.757560000000     0.0217642  
C195     C      0.457000000000     0.931720000000     0.763030000000    -0.0561549  
C196     C      0.446640000000     0.910150000000     0.784850000000     0.0127731  
C197     C      0.421310000000     0.906030000000     0.801620000000    -0.0728631  
C198     C      0.406410000000     0.923810000000     0.796000000000     0.0124845  
C199     C      0.454140000000     0.973410000000     0.734680000000     0.0217406  
C200     C      0.432800000000     0.977540000000     0.717960000000    -0.0560025  
C201     C      0.443940000000     0.999300000000     0.696190000000     0.0122286  
C202     C      0.476630000000     0.017280000000     0.690620000000    -0.0726033  
C203     C      0.497970000000     0.013360000000     0.707440000000     0.0126893  
C204     C      0.486870000000     0.991790000000     0.729260000000    -0.0561357  
C205     C      0.487910000000     0.978020000000     0.524170000000    -0.0560343  
C206     C      0.462120000000     0.973360000000     0.507620000000     0.0217788  
C207     C      0.447280000000     0.991230000000     0.513230000000    -0.0562576  
C208     C      0.457630000000     0.012830000000     0.535070000000     0.0128092  
C209     C      0.483210000000     0.017280000000     0.551720000000    -0.0726462  
C210     C      0.498390000000     0.999810000000     0.545950000000     0.0122861  
C211     C      0.450430000000     0.949800000000     0.984740000000     0.0217368  
C212     C      0.471800000000     0.945970000000     0.967840000000    -0.056077   
C213     C      0.460650000000     0.924190000000     0.946050000000     0.0124452  
C214     C      0.427920000000     0.905900000000     0.940610000000    -0.0727821  
C215     C      0.406570000000     0.909520000000     0.957610000000     0.0127332  
C216     C      0.417670000000     0.931100000000     0.979460000000    -0.0561362  
C217     C      0.178430000000     0.672730000000     0.848830000000    -0.0563758  
C218     C      0.198740000000     0.685210000000     0.871780000000     0.0217007  
C219     C      0.190690000000     0.667280000000     0.896220000000    -0.0561613  
C220     C      0.163790000000     0.637060000000     0.897300000000     0.0124317  
C221     C      0.144400000000     0.624020000000     0.873940000000    -0.073119   
C222     C      0.151590000000     0.642440000000     0.849880000000     0.0126721  
C223     C      0.229410000000     0.715600000000     0.869700000000     0.0216484  
C224     C      0.248170000000     0.722650000000     0.845830000000    -0.0561121  
C225     C      0.278580000000     0.749310000000     0.844920000000     0.01235    
C226     C      0.290990000000     0.769450000000     0.867900000000    -0.0729553  
C227     C      0.271770000000     0.763240000000     0.891320000000     0.0126105  
C228     C      0.241290000000     0.736640000000     0.892200000000    -0.0563011  
C229     C      0.712970000000     0.257310000000     0.646530000000    -0.0561222  
C230     C      0.705190000000     0.238970000000     0.622310000000     0.0216276  
C231     C      0.725620000000     0.251190000000     0.599480000000    -0.0562689  
C232     C      0.752320000000     0.281590000000     0.600400000000     0.0125744  
C233     C      0.759230000000     0.300390000000     0.624220000000    -0.0730306  
C234     C      0.739720000000     0.287630000000     0.647490000000     0.0124052  
C235     C      0.674650000000     0.208430000000     0.620290000000     0.0217078  
C236     C      0.662760000000     0.187750000000     0.642980000000    -0.0564174  
C237     C      0.632370000000     0.161000000000     0.642090000000     0.0126679  
C238     C      0.613260000000     0.154290000000     0.618470000000    -0.0730396  
C239     C      0.625700000000     0.174060000000     0.595320000000     0.012382   
C240     C      0.656020000000     0.200870000000     0.596240000000    -0.0561067  
C241     C      0.920560000000     0.466080000000     0.730590000000    -0.0561136  
C242     C      0.939340000000     0.452140000000     0.735850000000     0.021744   
C243     C      0.935660000000     0.427080000000     0.718860000000    -0.0560475  
C244     C      0.913940000000     0.416460000000     0.696980000000     0.0123993  
C245     C      0.895570000000     0.430780000000     0.691560000000    -0.0726793  
C246     C      0.899030000000     0.455620000000     0.708650000000     0.012663   
C247     C      0.962870000000     0.464020000000     0.758810000000     0.021808   
C248     C      0.980630000000     0.496690000000     0.764590000000    -0.056393   
C249     C      0.002250000000     0.507960000000     0.786450000000     0.012943   
C250     C      0.006850000000     0.486870000000     0.802940000000    -0.0725455  
C251     C      0.989470000000     0.454260000000     0.797030000000     0.0122106  
C252     C      0.967650000000     0.442940000000     0.775230000000    -0.0560641  
C253     C      0.921890000000     0.427930000000     0.514010000000    -0.0560755  
C254     C      0.940130000000     0.460650000000     0.508660000000     0.0216915  
C255     C      0.935760000000     0.481780000000     0.525400000000    -0.0559933  
C256     C      0.913910000000     0.470450000000     0.547120000000     0.0122896  
C257     C      0.896090000000     0.437770000000     0.552620000000    -0.0726314  
C258     C      0.900240000000     0.416650000000     0.535780000000     0.0126574  
C259     C      0.963720000000     0.472530000000     0.985830000000     0.0217276  
C260     C      0.982060000000     0.458170000000     0.980340000000    -0.0562716  
C261     C      0.003640000000     0.468630000000     0.958510000000     0.0128247  
C262     C      0.007600000000     0.493880000000     0.941750000000    -0.0724131  
C263     C      0.989690000000     0.508630000000     0.947410000000     0.0120823  
C264     C      0.967920000000     0.498020000000     0.969180000000    -0.0559429  
C265     C      0.417710000000     0.666040000000     0.846470000000    -0.0560066  
C266     C      0.428570000000     0.684550000000     0.870580000000     0.0215947  
C267     C      0.436990000000     0.672490000000     0.893420000000    -0.0562522  
C268     C      0.433210000000     0.642070000000     0.892610000000     0.0124912  
C269     C      0.421010000000     0.623100000000     0.868910000000    -0.0728347  
C270     C      0.414040000000     0.635690000000     0.845630000000     0.0122783  
C271     C      0.428670000000     0.715120000000     0.872490000000     0.0216897  
C272     C      0.437270000000     0.735640000000     0.849690000000    -0.0563498  
C273     C      0.433670000000     0.762380000000     0.850480000000     0.0126736  
C274     C      0.421490000000     0.769250000000     0.874100000000    -0.0730255  
C275     C      0.414340000000     0.749650000000     0.897350000000     0.0124241  
C276     C      0.417820000000     0.722850000000     0.896540000000    -0.0561771  
C277     C      0.240450000000     0.477110000000     0.850780000000    -0.0562518  
C278     C      0.228760000000     0.486130000000     0.873470000000     0.0216228  
C279     C      0.247600000000     0.497370000000     0.897400000000    -0.0560533  
C280     C      0.277890000000     0.500790000000     0.898190000000     0.012345   
C281     C      0.290120000000     0.493190000000     0.875030000000    -0.0729952  
C282     C      0.270830000000     0.480660000000     0.851530000000     0.0126012  
C283     C      0.198220000000     0.486200000000     0.871570000000     0.0217358  
C284     C      0.190220000000     0.496480000000     0.847310000000    -0.0561958  
C285     C      0.163450000000     0.500080000000     0.846430000000     0.0123998  
C286     C      0.144150000000     0.493620000000     0.869820000000    -0.0730485  
C287     C      0.151300000000     0.482020000000     0.893690000000     0.0126571  
C288     C      0.178010000000     0.478290000000     0.894540000000    -0.0563702  
C289     C      0.661430000000     0.445560000000     0.600030000000    -0.056398   
C290     C      0.673610000000     0.437160000000     0.622810000000     0.0217193  
C291     C      0.655180000000     0.426320000000     0.646930000000    -0.05618    
C292     C      0.624790000000     0.422660000000     0.647840000000     0.0124052  
C293     C      0.612080000000     0.429630000000     0.624620000000    -0.0729814  
C294     C      0.630970000000     0.441780000000     0.600910000000     0.012636   
C295     C      0.704250000000     0.437320000000     0.620830000000     0.0215896  
C296     C      0.711960000000     0.426570000000     0.596710000000    -0.0560053  
C297     C      0.738860000000     0.423200000000     0.595800000000     0.0122109  
C298     C      0.758590000000     0.430380000000     0.619030000000    -0.0727609  
C299     C      0.751740000000     0.442460000000     0.642740000000     0.0124492  
C300     C      0.724890000000     0.445950000000     0.643610000000    -0.0562712  
C301     C      0.485120000000     0.256410000000     0.596650000000    -0.0560336  
C302     C      0.474620000000     0.237980000000     0.620790000000     0.0215703  
C303     C      0.466280000000     0.250030000000     0.643690000000    -0.0562411  
C304     C      0.469830000000     0.280350000000     0.642900000000     0.0125689  
C305     C      0.481670000000     0.299240000000     0.619160000000    -0.0730091  
C306     C      0.488530000000     0.286650000000     0.595830000000     0.0124092  
C307     C      0.474800000000     0.207550000000     0.622670000000     0.0217248  
C308     C      0.466190000000     0.186980000000     0.599880000000    -0.0563675  
C309     C      0.470030000000     0.160380000000     0.600640000000     0.0126937  
C310     C      0.482440000000     0.153690000000     0.624250000000    -0.0730688  
C311     C      0.489600000000     0.173340000000     0.647490000000     0.0124485  
C312     C      0.485900000000     0.200010000000     0.646700000000    -0.0561648  
C313     C      0.455720000000     0.495640000000     0.979990000000    -0.0560984  
C314     C      0.441140000000     0.462930000000     0.985390000000     0.0217246  
C315     C      0.415610000000     0.441800000000     0.968600000000    -0.056016   
C316     C      0.405150000000     0.453120000000     0.946810000000     0.0124013  
C317     C      0.420090000000     0.485790000000     0.941270000000    -0.0727686  
C318     C      0.445400000000     0.506920000000     0.958150000000     0.0127214  
C319     C      0.452800000000     0.451050000000     0.508290000000     0.0217941  
C320     C      0.485530000000     0.465340000000     0.513820000000    -0.0561738  
C321     C      0.496600000000     0.454840000000     0.535680000000     0.0127701  
C322     C      0.475260000000     0.429620000000     0.552430000000    -0.0727631  
C323     C      0.442570000000     0.414960000000     0.546740000000     0.0124618  
C324     C      0.431440000000     0.425610000000     0.524940000000    -0.0561147  
C325     C      0.416210000000     0.456950000000     0.763470000000    -0.0561199  
C326     C      0.448960000000     0.470950000000     0.758240000000     0.0217736  
C327     C      0.470370000000     0.496120000000     0.775180000000    -0.0561054  
C328     C      0.459270000000     0.506790000000     0.796960000000     0.0124541  
C329     C      0.426560000000     0.492430000000     0.802340000000    -0.072737   
C330     C      0.405160000000     0.467490000000     0.785310000000     0.0127012  
C331     C      0.460600000000     0.459060000000     0.735360000000     0.0217344  
C332     C      0.445740000000     0.426380000000     0.729660000000    -0.0560742  
C333     C      0.456080000000     0.415110000000     0.707850000000     0.0127074  
C334     C      0.481700000000     0.436210000000     0.691310000000    -0.0727858  
C335     C      0.496900000000     0.468840000000     0.697150000000     0.0124394  
C336     C      0.486420000000     0.480160000000     0.718900000000    -0.0560825  
Cd1      Cd     0.511250000000     0.399850000000     0.121960000000     0.507105   
Cd2      Cd     0.390760000000     0.522340000000     0.371850000000     0.507155   
Cd3      Cd     0.829990000000     0.401140000000     0.121800000000     0.507095   
Cd4      Cd     0.073160000000     0.523400000000     0.372170000000     0.507114   
Cd5      Cd     0.512570000000     0.083050000000     0.121220000000     0.50712    
Cd6      Cd     0.391820000000     0.840250000000     0.371000000000     0.507102   
Cd7      Cd     0.511250000000     0.399850000000     0.621970000000     0.507118   
Cd8      Cd     0.390760000000     0.522340000000     0.871850000000     0.507119   
Cd9      Cd     0.829990000000     0.401140000000     0.621800000000     0.507104   
Cd10     Cd     0.073160000000     0.523400000000     0.872170000000     0.507156   
Cd11     Cd     0.512570000000     0.083050000000     0.621220000000     0.50712    
Cd12     Cd     0.391820000000     0.840250000000     0.871000000000     0.507109   
H1       H      0.476310000000     0.933960000000     0.250310000000     0.0500548  
H2       H      0.458480000000     0.896650000000     0.288530000000     0.0477915  
H3       H      0.386880000000     0.921220000000     0.308620000000     0.0465176  
H4       H      0.405390000000     0.959420000000     0.270820000000     0.0498944  
H5       H      0.407420000000     0.963540000000     0.221330000000     0.0498752  
H6       H      0.426900000000     0.001730000000     0.183530000000     0.0466381  
H7       H      0.523320000000     0.027020000000     0.203800000000     0.0478316  
H8       H      0.504040000000     0.989700000000     0.242020000000     0.0500363  
H9       H      0.427760000000     0.988730000000     0.000610000000     0.050103   
H10      H      0.445560000000     0.026100000000     0.038860000000     0.0478032  
H11      H      0.518130000000     0.002660000000     0.058480000000     0.0466176  
H12      H      0.499670000000     0.964420000000     0.520630000000     0.0498706  
H13      H      0.497190000000     0.960220000000     0.471110000000     0.0498932  
H14      H      0.477700000000     0.922000000000     0.433240000000     0.046524   
H15      H      0.381190000000     0.895610000000     0.454080000000     0.0478248  
H16      H      0.400490000000     0.932950000000     0.992350000000     0.0500598  
H17      H      0.205940000000     0.675940000000     0.414190000000     0.0499377  
H18      H      0.158920000000     0.623450000000     0.416130000000     0.0466878  
H19      H      0.136980000000     0.633120000000     0.331580000000     0.0472426  
H20      H      0.183620000000     0.686110000000     0.329840000000     0.0498241  
H21      H      0.239990000000     0.706810000000     0.328240000000     0.0498808  
H22      H      0.292820000000     0.753410000000     0.326580000000     0.0466468  
H23      H      0.280590000000     0.778440000000     0.409300000000     0.0472982  
H24      H      0.227260000000     0.732220000000     0.410720000000     0.0497719  
H25      H      0.720640000000     0.237500000000     0.080660000000     0.0497915  
H26      H      0.767020000000     0.290680000000     0.082180000000     0.0472353  
H27      H      0.744380000000     0.301540000000     0.166140000000     0.0466341  
H28      H      0.697610000000     0.248860000000     0.164400000000     0.0499081  
H29      H      0.676680000000     0.192570000000     0.161650000000     0.0498278  
H30      H      0.623530000000     0.146090000000     0.160210000000     0.047255   
H31      H      0.611550000000     0.169560000000     0.076820000000     0.046666   
H32      H      0.664210000000     0.216420000000     0.078480000000     0.0498776  
H33      H      0.949980000000     0.416040000000     0.222110000000     0.0499048  
H34      H      0.911860000000     0.397320000000     0.184100000000     0.0465123  
H35      H      0.885060000000     0.467000000000     0.205140000000     0.0477973  
H36      H      0.922290000000     0.485000000000     0.243550000000     0.0500395  
H37      H      0.978040000000     0.513690000000     0.252070000000     0.0500253  
H38      H      0.015440000000     0.533260000000     0.290350000000     0.0478118  
H39      H      0.992430000000     0.437410000000     0.309440000000     0.0465474  
H40      H      0.954130000000     0.417610000000     0.271580000000     0.0498549  
H41      H      0.949650000000     0.507140000000     0.522080000000     0.0498531  
H42      H      0.911300000000     0.487320000000     0.059790000000     0.0465317  
H43      H      0.886700000000     0.391310000000     0.039370000000     0.0478143  
H44      H      0.924150000000     0.410910000000     0.001240000000     0.0500483  
H45      H      0.979940000000     0.438900000000     0.993040000000     0.0500149  
H46      H      0.017260000000     0.456910000000     0.454800000000     0.0477957  
H47      H      0.992170000000     0.528100000000     0.434800000000     0.0465571  
H48      H      0.953950000000     0.509410000000     0.472620000000     0.0498493  
H49      H      0.445930000000     0.686320000000     0.412150000000     0.0497968  
H50      H      0.438990000000     0.633110000000     0.410840000000     0.0472802  
H51      H      0.404550000000     0.621640000000     0.327070000000     0.0466557  
H52      H      0.410630000000     0.674370000000     0.328590000000     0.0498711  
H53      H      0.446200000000     0.730680000000     0.331010000000     0.0498109  
H54      H      0.439590000000     0.777160000000     0.332280000000     0.047256   
H55      H      0.404860000000     0.754280000000     0.415860000000     0.0466303  
H56      H      0.410610000000     0.707430000000     0.414370000000     0.0499292  
H57      H      0.239570000000     0.504930000000     0.415150000000     0.0498821  
H58      H      0.292190000000     0.510560000000     0.416590000000     0.0466588  
H59      H      0.279500000000     0.474380000000     0.333400000000     0.0472399  
H60      H      0.226370000000     0.467860000000     0.332200000000     0.0498579  
H61      H      0.205400000000     0.503170000000     0.329340000000     0.0499385  
H62      H      0.158600000000     0.509100000000     0.327740000000     0.0466921  
H63      H      0.136760000000     0.476630000000     0.412000000000     0.0472219  
H64      H      0.183160000000     0.469790000000     0.413390000000     0.0498244  
H65      H      0.663600000000     0.419260000000     0.164750000000     0.0499207  
H66      H      0.610810000000     0.413210000000     0.166410000000     0.0466468  
H67      H      0.621910000000     0.447570000000     0.082730000000     0.0472539  
H68      H      0.675190000000     0.454480000000     0.081300000000     0.0498275  
H69      H      0.696440000000     0.419350000000     0.078880000000     0.0498541  
H70      H      0.743470000000     0.413800000000     0.077240000000     0.0466728  
H71      H      0.766620000000     0.448400000000     0.160920000000     0.047273   
H72      H      0.719970000000     0.454820000000     0.162340000000     0.0498107  
H73      H      0.457610000000     0.236270000000     0.162450000000     0.0497967  
H74      H      0.464130000000     0.289310000000     0.161170000000     0.0472355  
H75      H      0.497750000000     0.300630000000     0.077230000000     0.0466524  
H76      H      0.492120000000     0.248100000000     0.078730000000     0.0499019  
H77      H      0.457060000000     0.191780000000     0.081220000000     0.0498171  
H78      H      0.464090000000     0.145550000000     0.082440000000     0.0472415  
H79      H      0.499260000000     0.168860000000     0.165980000000     0.0466526  
H80      H      0.493130000000     0.215480000000     0.164530000000     0.0499077  
H81      H      0.404060000000     0.416440000000     0.471960000000     0.0498977  
H82      H      0.385630000000     0.436250000000     0.434110000000     0.0465419  
H83      H      0.457270000000     0.532260000000     0.454540000000     0.047805   
H84      H      0.475020000000     0.512660000000     0.992800000000     0.0500444  
H85      H      0.502710000000     0.484570000000     0.001120000000     0.0500538  
H86      H      0.521960000000     0.466500000000     0.039410000000     0.0478282  
H87      H      0.425530000000     0.395520000000     0.059350000000     0.0465424  
H88      H      0.406070000000     0.414280000000     0.021470000000     0.0499246  
H89      H      0.495760000000     0.507210000000     0.271960000000     0.0498829  
H90      H      0.476360000000     0.526020000000     0.309790000000     0.0465364  
H91      H      0.379790000000     0.456070000000     0.288800000000     0.0478126  
H92      H      0.399000000000     0.437940000000     0.250550000000     0.0500557  
H93      H      0.426200000000     0.409380000000     0.242210000000     0.05005    
H94      H      0.444010000000     0.389800000000     0.204000000000     0.0477889  
H95      H      0.516650000000     0.485700000000     0.184710000000     0.0465524  
H96      H      0.498190000000     0.505490000000     0.222490000000     0.0499111  
H97      H      0.476310000000     0.933960000000     0.750310000000     0.0500634  
H98      H      0.458480000000     0.896640000000     0.788530000000     0.0477906  
H99      H      0.386880000000     0.921220000000     0.808620000000     0.0465092  
H100     H      0.405390000000     0.959420000000     0.770820000000     0.049898   
H101     H      0.407420000000     0.963540000000     0.721330000000     0.049875   
H102     H      0.426900000000     0.001730000000     0.683530000000     0.0466377  
H103     H      0.523320000000     0.027020000000     0.703800000000     0.0478316  
H104     H      0.504040000000     0.989700000000     0.742020000000     0.0500371  
H105     H      0.427760000000     0.988730000000     0.500610000000     0.0500986  
H106     H      0.445560000000     0.026100000000     0.538860000000     0.0478049  
H107     H      0.518130000000     0.002660000000     0.558480000000     0.0466246  
H108     H      0.499670000000     0.964420000000     0.020630000000     0.0499066  
H109     H      0.497190000000     0.960220000000     0.971110000000     0.0498993  
H110     H      0.477700000000     0.922000000000     0.933240000000     0.0465103  
H111     H      0.381190000000     0.895610000000     0.954080000000     0.0478247  
H112     H      0.400490000000     0.932950000000     0.492350000000     0.0500593  
H113     H      0.205940000000     0.675940000000     0.914190000000     0.0499406  
H114     H      0.158910000000     0.623450000000     0.916130000000     0.046679   
H115     H      0.136980000000     0.633120000000     0.831580000000     0.0472273  
H116     H      0.183620000000     0.686110000000     0.829840000000     0.0498259  
H117     H      0.239990000000     0.706810000000     0.828240000000     0.0498875  
H118     H      0.292820000000     0.753420000000     0.826580000000     0.046647   
H119     H      0.280590000000     0.778440000000     0.909300000000     0.0472857  
H120     H      0.227260000000     0.732220000000     0.910720000000     0.049813   
H121     H      0.720640000000     0.237500000000     0.580660000000     0.049777   
H122     H      0.767020000000     0.290680000000     0.582180000000     0.0472526  
H123     H      0.744380000000     0.301540000000     0.666140000000     0.046636   
H124     H      0.697610000000     0.248860000000     0.664400000000     0.0498988  
H125     H      0.676680000000     0.192570000000     0.661650000000     0.04985    
H126     H      0.623530000000     0.146090000000     0.660210000000     0.0472531  
H127     H      0.611550000000     0.169560000000     0.576820000000     0.0466629  
H128     H      0.664210000000     0.216420000000     0.578480000000     0.0498813  
H129     H      0.949990000000     0.416040000000     0.722110000000     0.0498708  
H130     H      0.911860000000     0.397320000000     0.684100000000     0.046515   
H131     H      0.885050000000     0.467000000000     0.705140000000     0.0478029  
H132     H      0.922280000000     0.485000000000     0.743550000000     0.0500124  
H133     H      0.978040000000     0.513680000000     0.752070000000     0.0500719  
H134     H      0.015440000000     0.533260000000     0.790350000000     0.0477896  
H135     H      0.992430000000     0.437410000000     0.809440000000     0.0465295  
H136     H      0.954130000000     0.417610000000     0.771580000000     0.0498699  
H137     H      0.949650000000     0.507140000000     0.022080000000     0.0498619  
H138     H      0.911300000000     0.487320000000     0.559800000000     0.0465283  
H139     H      0.886700000000     0.391310000000     0.539360000000     0.0478138  
H140     H      0.924150000000     0.410910000000     0.501240000000     0.0500203  
H141     H      0.979940000000     0.438910000000     0.493040000000     0.0500545  
H142     H      0.017250000000     0.456910000000     0.954800000000     0.0478182  
H143     H      0.992170000000     0.528100000000     0.934800000000     0.0465645  
H144     H      0.953950000000     0.509410000000     0.972620000000     0.0498418  
H145     H      0.445930000000     0.686320000000     0.912150000000     0.0497853  
H146     H      0.438990000000     0.633110000000     0.910840000000     0.0473027  
H147     H      0.404550000000     0.621650000000     0.827070000000     0.0466723  
H148     H      0.410630000000     0.674370000000     0.828590000000     0.0498596  
H149     H      0.446210000000     0.730690000000     0.831010000000     0.0498097  
H150     H      0.439590000000     0.777160000000     0.832280000000     0.047254   
H151     H      0.404860000000     0.754280000000     0.915860000000     0.0466303  
H152     H      0.410610000000     0.707430000000     0.914370000000     0.0499315  
H153     H      0.239570000000     0.504930000000     0.915150000000     0.0498541  
H154     H      0.292190000000     0.510560000000     0.916590000000     0.0466687  
H155     H      0.279500000000     0.474390000000     0.833400000000     0.0472632  
H156     H      0.226370000000     0.467860000000     0.832190000000     0.049783   
H157     H      0.205400000000     0.503170000000     0.829340000000     0.0499413  
H158     H      0.158600000000     0.509100000000     0.827740000000     0.0466905  
H159     H      0.136760000000     0.476630000000     0.912000000000     0.0472368  
H160     H      0.183160000000     0.469790000000     0.913390000000     0.0498221  
H161     H      0.663600000000     0.419260000000     0.664750000000     0.0499187  
H162     H      0.610810000000     0.413210000000     0.666410000000     0.0466507  
H163     H      0.621910000000     0.447570000000     0.582730000000     0.0472544  
H164     H      0.675190000000     0.454480000000     0.581300000000     0.0498286  
H165     H      0.696440000000     0.419340000000     0.578880000000     0.04985    
H166     H      0.743470000000     0.413800000000     0.577240000000     0.046689   
H167     H      0.766610000000     0.448400000000     0.660920000000     0.0472906  
H168     H      0.719970000000     0.454820000000     0.662340000000     0.0497978  
H169     H      0.457610000000     0.236270000000     0.662450000000     0.0497852  
H170     H      0.464130000000     0.289310000000     0.661160000000     0.0472552  
H171     H      0.497750000000     0.300630000000     0.577230000000     0.0466589  
H172     H      0.492130000000     0.248100000000     0.578730000000     0.0498566  
H173     H      0.457060000000     0.191780000000     0.581220000000     0.0498201  
H174     H      0.464090000000     0.145550000000     0.582440000000     0.0472393  
H175     H      0.499260000000     0.168860000000     0.665980000000     0.0466513  
H176     H      0.493130000000     0.215480000000     0.664530000000     0.049911   
H177     H      0.404060000000     0.416440000000     0.971960000000     0.0498903  
H178     H      0.385630000000     0.436250000000     0.934110000000     0.0465419  
H179     H      0.457270000000     0.532260000000     0.954540000000     0.0478124  
H180     H      0.475020000000     0.512660000000     0.492800000000     0.0500804  
H181     H      0.502710000000     0.484570000000     0.501120000000     0.0500633  
H182     H      0.521960000000     0.466500000000     0.539410000000     0.0477991  
H183     H      0.425520000000     0.395520000000     0.559350000000     0.0465304  
H184     H      0.406070000000     0.414280000000     0.521470000000     0.0499306  
H185     H      0.495750000000     0.507210000000     0.771960000000     0.0499205  
H186     H      0.476360000000     0.526020000000     0.809790000000     0.0465316  
H187     H      0.379790000000     0.456070000000     0.788800000000     0.047814   
H188     H      0.399000000000     0.437940000000     0.750550000000     0.0500593  
H189     H      0.426200000000     0.409370000000     0.742210000000     0.0500386  
H190     H      0.444000000000     0.389800000000     0.704000000000     0.0477826  
H191     H      0.516650000000     0.485700000000     0.684710000000     0.0465523  
H192     H      0.498190000000     0.505490000000     0.722490000000     0.0499109  
O1       O      0.565270000000     0.423970000000     0.102650000000    -0.232241   
O2       O      0.487440000000     0.345910000000     0.141310000000    -0.232461   
O3       O      0.516070000000     0.434210000000     0.083070000000    -0.232964   
O4       O      0.516700000000     0.441900000000     0.153990000000    -0.2374     
O5       O      0.476670000000     0.395330000000     0.160630000000    -0.233181   
O6       O      0.469170000000     0.394780000000     0.090010000000    -0.237241   
O7       O      0.560810000000     0.410500000000     0.145290000000    -0.237821   
O8       O      0.500340000000     0.350380000000     0.098530000000    -0.238051   
O9       O      0.415340000000     0.576450000000     0.390990000000    -0.232207   
O10      O      0.336480000000     0.498140000000     0.352870000000    -0.232161   
O11      O      0.425030000000     0.526780000000     0.410820000000    -0.233108   
O12      O      0.432800000000     0.527080000000     0.340150000000    -0.237501   
O13      O      0.385720000000     0.488160000000     0.332680000000    -0.232873   
O14      O      0.385380000000     0.480100000000     0.403600000000    -0.237585   
O15      O      0.401550000000     0.571730000000     0.348390000000    -0.23816    
O16      O      0.341620000000     0.512350000000     0.395360000000    -0.238172   
O17      O      0.799900000000     0.425060000000     0.141060000000    -0.232243   
O18      O      0.800110000000     0.347220000000     0.102290000000    -0.232418   
O19      O      0.859220000000     0.435250000000     0.161000000000    -0.233034   
O20      O      0.866930000000     0.443420000000     0.090110000000    -0.237436   
O21      O      0.859950000000     0.396770000000     0.083000000000    -0.233138   
O22      O      0.867150000000     0.396210000000     0.153660000000    -0.237419   
O23      O      0.790990000000     0.411550000000     0.098400000000    -0.237985   
O24      O      0.791460000000     0.351540000000     0.145050000000    -0.237984   
O25      O      0.042720000000     0.527750000000     0.333680000000    -0.233262   
O26      O      0.043570000000     0.489080000000     0.411060000000    -0.233231   
O27      O      0.103450000000     0.576980000000     0.352200000000    -0.232636   
O28      O      0.111560000000     0.512090000000     0.348910000000    -0.237737   
O29      O      0.103480000000     0.499900000000     0.391850000000    -0.232348   
O30      O      0.111780000000     0.573260000000     0.395180000000    -0.237822   
O31      O      0.036400000000     0.481260000000     0.340190000000    -0.237063   
O32      O      0.036450000000     0.528710000000     0.404210000000    -0.237098   
O33      O      0.478170000000     0.053180000000     0.082320000000    -0.233083   
O34      O      0.517460000000     0.053550000000     0.160160000000    -0.232986   
O35      O      0.488090000000     0.112720000000     0.102090000000    -0.232265   
O36      O      0.561870000000     0.122130000000     0.097900000000    -0.23805    
O37      O      0.566730000000     0.112950000000     0.140420000000    -0.23222    
O38      O      0.501870000000     0.121720000000     0.144700000000    -0.238102   
O39      O      0.518070000000     0.046410000000     0.089270000000    -0.237449   
O40      O      0.470520000000     0.046000000000     0.153010000000    -0.237368   
O41      O      0.387000000000     0.869470000000     0.410180000000    -0.232919   
O42      O      0.426170000000     0.869970000000     0.332140000000    -0.233146   
O43      O      0.337570000000     0.810850000000     0.389890000000    -0.231999   
O44      O      0.402340000000     0.801460000000     0.394540000000    -0.238159   
O45      O      0.416070000000     0.810360000000     0.351960000000    -0.232306   
O46      O      0.342520000000     0.801090000000     0.347560000000    -0.238003   
O47      O      0.434020000000     0.877440000000     0.402780000000    -0.237522   
O48      O      0.386520000000     0.877090000000     0.339150000000    -0.237625   
O49      O      0.565270000000     0.423970000000     0.602650000000    -0.232227   
O50      O      0.487440000000     0.345910000000     0.641310000000    -0.23247    
O51      O      0.516070000000     0.434210000000     0.583080000000    -0.233014   
O52      O      0.516690000000     0.441900000000     0.653990000000    -0.237498   
O53      O      0.476670000000     0.395330000000     0.660630000000    -0.233233   
O54      O      0.469170000000     0.394790000000     0.590010000000    -0.237375   
O55      O      0.560810000000     0.410500000000     0.645290000000    -0.237839   
O56      O      0.500340000000     0.350380000000     0.598530000000    -0.238037   
O57      O      0.415340000000     0.576450000000     0.891000000000    -0.232063   
O58      O      0.336480000000     0.498140000000     0.852870000000    -0.232158   
O59      O      0.425030000000     0.526780000000     0.910820000000    -0.23311    
O60      O      0.432810000000     0.527080000000     0.840150000000    -0.237458   
O61      O      0.385720000000     0.488160000000     0.832680000000    -0.232859   
O62      O      0.385380000000     0.480100000000     0.903600000000    -0.237583   
O63      O      0.401550000000     0.571730000000     0.848390000000    -0.238102   
O64      O      0.341620000000     0.512350000000     0.895360000000    -0.238167   
O65      O      0.799910000000     0.425060000000     0.641060000000    -0.232123   
O66      O      0.800110000000     0.347230000000     0.602290000000    -0.232278   
O67      O      0.859220000000     0.435250000000     0.661000000000    -0.233031   
O68      O      0.866930000000     0.443420000000     0.590120000000    -0.237368   
O69      O      0.859950000000     0.396770000000     0.583000000000    -0.233106   
O70      O      0.867150000000     0.396210000000     0.653660000000    -0.237412   
O71      O      0.790990000000     0.411550000000     0.598390000000    -0.237827   
O72      O      0.791460000000     0.351540000000     0.645050000000    -0.238034   
O73      O      0.042720000000     0.527750000000     0.833680000000    -0.233303   
O74      O      0.043570000000     0.489080000000     0.911060000000    -0.233224   
O75      O      0.103450000000     0.576970000000     0.852200000000    -0.232652   
O76      O      0.111560000000     0.512090000000     0.848910000000    -0.237749   
O77      O      0.103480000000     0.499890000000     0.891850000000    -0.232372   
O78      O      0.111770000000     0.573260000000     0.895170000000    -0.237943   
O79      O      0.036400000000     0.481270000000     0.840190000000    -0.237189   
O80      O      0.036450000000     0.528710000000     0.904210000000    -0.237087   
O81      O      0.478170000000     0.053180000000     0.582320000000    -0.233082   
O82      O      0.517460000000     0.053550000000     0.660160000000    -0.232986   
O83      O      0.488090000000     0.112720000000     0.602090000000    -0.232266   
O84      O      0.561870000000     0.122130000000     0.597900000000    -0.238051   
O85      O      0.566730000000     0.112950000000     0.640420000000    -0.232221   
O86      O      0.501870000000     0.121720000000     0.644700000000    -0.238102   
O87      O      0.518070000000     0.046410000000     0.589270000000    -0.237447   
O88      O      0.470520000000     0.046000000000     0.653010000000    -0.237368   
O89      O      0.387000000000     0.869470000000     0.910180000000    -0.232926   
O90      O      0.426170000000     0.869980000000     0.832140000000    -0.233226   
O91      O      0.337570000000     0.810850000000     0.889890000000    -0.232005   
O92      O      0.402340000000     0.801460000000     0.894540000000    -0.238159   
O93      O      0.416070000000     0.810360000000     0.851960000000    -0.232313   
O94      O      0.342520000000     0.801090000000     0.847560000000    -0.238018   
O95      O      0.434020000000     0.877440000000     0.902780000000    -0.237525   
O96      O      0.386520000000     0.877090000000     0.839150000000    -0.237664   


