data_structure

_audit_creation_method RASPA-1.0
_audit_creation_date 2023-5-22
_audit_author_name 'Poobodin Mano'

_cell_length_a    68.8787
_cell_length_b    69.1782
_cell_length_c    41.4718
_cell_angle_alpha 90.0306
_cell_angle_beta  89.9696
_cell_angle_gamma 120.468
_cell_volume      170322

_symmetry_cell_setting          triclinic
_symmetry_space_group_name_Hall 'P 1'
_symmetry_space_group_name_H-M  'P 1'
_symmetry_Int_Tables_number     1

_symmetry_equiv_pos_as_xyz 'x,y,z'

loop_
_atom_site_label
_atom_site_type_symbol
_atom_site_fract_x
_atom_site_fract_y
_atom_site_fract_z
_atom_site_charge
C1       C      0.435150000000     0.579480000000     0.091970000000     0.288058   
C2       C      0.371010000000     0.521920000000     0.019410000000     0.288398   
C3       C      0.431140000000     0.517710000000     0.051220000000     0.287394   
C4       C      0.374140000000     0.518830000000     0.128340000000     0.287518   
C5       C      0.525420000000     0.393260000000     0.939640000000     0.289536   
C6       C      0.589770000000     0.448190000000     0.009160000000     0.287824   
C7       C      0.586210000000     0.455220000000     0.902640000000     0.2888     
C8       C      0.531290000000     0.458410000000     0.978960000000     0.287958   
C9       C      0.923290000000     0.795860000000     0.171580000000     0.288727   
C10      C      0.859120000000     0.789580000000     0.100340000000     0.288389   
C11      C      0.919170000000     0.789300000000     0.063170000000     0.287586   
C12      C      0.862410000000     0.731090000000     0.140960000000     0.287445   
C13      C      0.703980000000     0.502930000000     0.188030000000     0.28799    
C14      C      0.768500000000     0.511980000000     0.256950000000     0.289226   
C15      C      0.763260000000     0.571490000000     0.217010000000     0.287651   
C16      C      0.708150000000     0.513860000000     0.294170000000     0.289031   
C17      C      0.258570000000     0.782190000000     0.341650000000     0.287806   
C18      C      0.194430000000     0.727910000000     0.270110000000     0.288915   
C19      C      0.199860000000     0.791780000000     0.311720000000     0.288369   
C20      C      0.255950000000     0.789730000000     0.235360000000     0.288494   
C21      C      0.038250000000     0.853160000000     0.350720000000     0.287623   
C22      C      0.101450000000     0.910490000000     0.425620000000     0.28804    
C23      C      0.039170000000     0.850820000000     0.458170000000     0.287921   
C24      C      0.098510000000     0.849620000000     0.384070000000     0.287533   
C25      C      0.524300000000     0.125480000000     0.436100000000     0.287897   
C26      C      0.588820000000     0.131470000000     0.507480000000     0.288148   
C27      C      0.528020000000     0.067570000000     0.476840000000     0.287187   
C28      C      0.584810000000     0.126250000000     0.399050000000     0.287583   
C29      C      0.433260000000     0.846420000000     0.590890000000     0.291036   
C30      C      0.370960000000     0.836040000000     0.522510000000     0.28755    
C31      C      0.374850000000     0.853480000000     0.628610000000     0.289818   
C32      C      0.428570000000     0.907810000000     0.551820000000     0.289739   
C33      C      0.924850000000     0.110590000000     0.676920000000     0.287222   
C34      C      0.863320000000     0.058750000000     0.607460000000     0.291433   
C35      C      0.867810000000     0.125240000000     0.646080000000     0.28945    
C36      C      0.922240000000     0.126170000000     0.571390000000     0.28993    
C37      C      0.705370000000     0.187210000000     0.684450000000     0.288182   
C38      C      0.769530000000     0.245090000000     0.756000000000     0.288197   
C39      C      0.709340000000     0.184590000000     0.793230000000     0.287758   
C40      C      0.766210000000     0.183390000000     0.715920000000     0.287425   
C41      C      0.256860000000     0.465230000000     0.839180000000     0.288642   
C42      C      0.192870000000     0.458970000000     0.767240000000     0.287865   
C43      C      0.252730000000     0.458470000000     0.730120000000     0.287662   
C44      C      0.196250000000     0.400590000000     0.808080000000     0.287382   
C45      C      0.038530000000     0.171810000000     0.856190000000     0.287385   
C46      C      0.103340000000     0.183390000000     0.928270000000     0.288345   
C47      C      0.097540000000     0.241000000000     0.884460000000     0.288052   
C48      C      0.041390000000     0.182690000000     0.961460000000     0.288983   
C49      C      0.854780000000     0.802680000000     0.674950000000     0.286645   
C50      C      0.906720000000     0.791970000000     0.605510000000     0.290585   
C51      C      0.841410000000     0.731050000000     0.647170000000     0.289876   
C52      C      0.841780000000     0.785240000000     0.569480000000     0.288999   
C53      C      0.721710000000     0.513580000000     0.761940000000     0.287735   
C54      C      0.777900000000     0.507270000000     0.685150000000     0.287473   
C55      C      0.782620000000     0.571330000000     0.719130000000     0.287342   
C56      C      0.781100000000     0.510270000000     0.792140000000     0.288039   
C57      C      0.165760000000     0.109250000000     0.178620000000     0.288748   
C58      C      0.173640000000     0.056450000000     0.099670000000     0.289639   
C59      C      0.174040000000     0.120110000000     0.070770000000     0.287853   
C60      C      0.231620000000     0.116380000000     0.140920000000     0.286957   
C61      C      0.453530000000     0.244210000000     0.255650000000     0.291515   
C62      C      0.465090000000     0.193750000000     0.185750000000     0.287116   
C63      C      0.445680000000     0.178260000000     0.290970000000     0.289404   
C64      C      0.392320000000     0.177790000000     0.213630000000     0.289175   
C65      C      0.833630000000     0.448210000000     0.506950000000     0.28816    
C66      C      0.838500000000     0.389600000000     0.435820000000     0.288138   
C67      C      0.840400000000     0.450240000000     0.398400000000     0.287327   
C68      C      0.898080000000     0.451590000000     0.476340000000     0.287197   
C69      C      0.119950000000     0.578240000000     0.589040000000     0.291035   
C70      C      0.130850000000     0.526810000000     0.519940000000     0.287553   
C71      C      0.113120000000     0.512440000000     0.625100000000     0.289911   
C72      C      0.058560000000     0.511580000000     0.549220000000     0.289051   
C73      C      0.054490000000     0.180900000000     0.424600000000     0.288212   
C74      C      0.109720000000     0.173400000000     0.348840000000     0.287914   
C75      C      0.115570000000     0.238310000000     0.382390000000     0.287358   
C76      C      0.115630000000     0.179920000000     0.457540000000     0.288043   
C77      C      0.239870000000     0.457720000000     0.271450000000     0.289      
C78      C      0.184940000000     0.467020000000     0.342050000000     0.287583   
C79      C      0.178370000000     0.457180000000     0.236000000000     0.288761   
C80      C      0.175130000000     0.398550000000     0.312040000000     0.287871   
C81      C      0.448350000000     0.843290000000     0.019170000000     0.287503   
C82      C      0.392020000000     0.849640000000     0.095330000000     0.28773    
C83      C      0.451390000000     0.846870000000     0.126170000000     0.287946   
C84      C      0.453170000000     0.907710000000     0.052350000000     0.287261   
C85      C      0.575790000000     0.125700000000     0.937300000000     0.28853    
C86      C      0.520970000000     0.135480000000     0.008370000000     0.287448   
C87      C      0.514400000000     0.125540000000     0.902610000000     0.288667   
C88      C      0.511740000000     0.067290000000     0.979600000000     0.287748   
C89      C      0.787430000000     0.909940000000     0.924290000000     0.290763   
C90      C      0.799020000000     0.859310000000     0.854060000000     0.287222   
C91      C      0.780250000000     0.844220000000     0.958780000000     0.289231   
C92      C      0.726590000000     0.844700000000     0.881470000000     0.289627   
C93      C      0.503070000000     0.783770000000     0.840160000000     0.2872     
C94      C      0.507770000000     0.726120000000     0.764720000000     0.287687   
C95      C      0.506370000000     0.785820000000     0.733210000000     0.287946   
C96      C      0.566700000000     0.786640000000     0.807440000000     0.287305   
C97      C      0.118700000000     0.532320000000     0.095950000000     0.287818   
C98      C      0.124230000000     0.594200000000     0.019400000000     0.287857   
C99      C      0.060150000000     0.533480000000     0.053230000000     0.287724   
C100     C      0.120110000000     0.594000000000     0.126800000000     0.28816    
C101     C      0.827580000000     0.373220000000     0.006030000000     0.287378   
C102     C      0.839260000000     0.435570000000     0.936470000000     0.291105   
C103     C      0.900140000000     0.431410000000     0.978870000000     0.290035   
C104     C      0.846830000000     0.377490000000     0.901030000000     0.289367   
C105     C      0.175810000000     0.106780000000     0.600390000000     0.289416   
C106     C      0.165210000000     0.041870000000     0.670180000000     0.287464   
C107     C      0.176800000000     0.046400000000     0.564370000000     0.288651   
C108     C      0.234440000000     0.100810000000     0.642580000000     0.287435   
C109     C      0.453040000000     0.199390000000     0.763070000000     0.287874   
C110     C      0.458490000000     0.262290000000     0.688790000000     0.287463   
C111     C      0.394110000000     0.200870000000     0.719970000000     0.287409   
C112     C      0.453210000000     0.259770000000     0.795980000000     0.288217   
C113     C      0.241310000000     0.773180000000     0.771500000000     0.28802    
C114     C      0.182000000000     0.708290000000     0.839680000000     0.288149   
C115     C      0.177400000000     0.768240000000     0.807860000000     0.287807   
C116     C      0.180510000000     0.712440000000     0.731500000000     0.287698   
C117     C      0.108820000000     0.927400000000     0.848070000000     0.288202   
C118     C      0.054140000000     0.863700000000     0.921100000000     0.289895   
C119     C      0.117690000000     0.868290000000     0.878090000000     0.28729    
C120     C      0.114900000000     0.923220000000     0.955740000000     0.287711   
C121     C      0.571650000000     0.439140000000     0.433420000000     0.287658   
C122     C      0.514540000000     0.376530000000     0.509220000000     0.287385   
C123     C      0.510240000000     0.436110000000     0.475050000000     0.287374   
C124     C      0.511930000000     0.376790000000     0.401910000000     0.288141   
C125     C      0.442070000000     0.595460000000     0.516510000000     0.287565   
C126     C      0.386370000000     0.530690000000     0.586240000000     0.288859   
C127     C      0.450950000000     0.536380000000     0.545950000000     0.288066   
C128     C      0.447830000000     0.591590000000     0.622780000000     0.288428   
C129     C      0.904720000000     0.106270000000     0.100180000000     0.28781    
C130     C      0.848470000000     0.043440000000     0.176200000000     0.287672   
C131     C      0.843400000000     0.102600000000     0.142250000000     0.287463   
C132     C      0.845220000000     0.043260000000     0.069080000000     0.288137   
C133     C      0.718560000000     0.198180000000     0.254700000000     0.290184   
C134     C      0.771180000000     0.260820000000     0.185760000000     0.286979   
C135     C      0.783920000000     0.256890000000     0.291320000000     0.288938   
C136     C      0.783990000000     0.202500000000     0.214260000000     0.290069   
C137     C      0.794850000000     0.929160000000     0.355450000000     0.288092   
C138     C      0.789610000000     0.865080000000     0.426110000000     0.288026   
C139     C      0.790300000000     0.925040000000     0.463940000000     0.287126   
C140     C      0.730990000000     0.868270000000     0.386220000000     0.287314   
C141     C      0.498430000000     0.709830000000     0.338780000000     0.287511   
C142     C      0.509910000000     0.772200000000     0.269660000000     0.291168   
C143     C      0.570960000000     0.767390000000     0.310630000000     0.289247   
C144     C      0.516830000000     0.713450000000     0.233730000000     0.289588   
C145     C      0.667500000000     0.839970000000     0.379220000000    -0.055914   
C146     C      0.662860000000     0.824480000000     0.354180000000     0.0216064  
C147     C      0.680900000000     0.823590000000     0.339840000000    -0.0560617  
C148     C      0.703000000000     0.837870000000     0.350180000000     0.0122987  
C149     C      0.707580000000     0.853270000000     0.375250000000    -0.0720934  
C150     C      0.689600000000     0.854140000000     0.389720000000     0.0123378  
C151     C      0.639320000000     0.809370000000     0.343010000000     0.0219046  
C152     C      0.621400000000     0.799990000000     0.365200000000    -0.0563298  
C153     C      0.599250000000     0.786210000000     0.354680000000     0.0128712  
C154     C      0.594500000000     0.781330000000     0.321750000000    -0.073567   
C155     C      0.612380000000     0.790390000000     0.299570000000     0.0130884  
C156     C      0.634530000000     0.804320000000     0.310060000000    -0.0562617  
C157     C      0.803690000000     0.977050000000     0.301640000000    -0.0566525  
C158     C      0.819950000000     0.978540000000     0.279730000000     0.0216619  
C159     C      0.828320000000     0.963860000000     0.283220000000    -0.0561902  
C160     C      0.820240000000     0.947740000000     0.307800000000     0.0124927  
C161     C      0.803780000000     0.946150000000     0.329450000000    -0.0730027  
C162     C      0.795740000000     0.961090000000     0.326210000000     0.0125695  
C163     C      0.827560000000     0.995030000000     0.252950000000     0.0215838  
C164     C      0.811720000000     0.997820000000     0.235390000000    -0.0564376  
C165     C      0.818610000000     0.013570000000     0.210600000000     0.0123251  
C166     C      0.841540000000     0.026990000000     0.202810000000    -0.0726764  
C167     C      0.857460000000     0.024210000000     0.220240000000     0.0122987  
C168     C      0.850510000000     0.008290000000     0.245020000000    -0.0561555  
C169     C      0.811540000000     0.167010000000     0.215650000000    -0.0564225  
C170     C      0.810100000000     0.160670000000     0.183100000000     0.0220103  
C171     C      0.800300000000     0.168550000000     0.160850000000    -0.0564275  
C172     C      0.791950000000     0.182240000000     0.170950000000     0.0129374  
C173     C      0.793320000000     0.188470000000     0.203500000000    -0.0739047  
C174     C      0.803300000000     0.180800000000     0.225710000000     0.0132453  
C175     C      0.818690000000     0.145820000000     0.172430000000     0.0215419  
C176     C      0.838650000000     0.148260000000     0.185530000000    -0.0560155  
C177     C      0.846620000000     0.134200000000     0.175740000000     0.0121765  
C178     C      0.834890000000     0.117450000000     0.152510000000    -0.0722553  
C179     C      0.815020000000     0.115040000000     0.139260000000     0.0123262  
C180     C      0.806970000000     0.129030000000     0.149180000000    -0.0558915  
C181     C      0.440600000000     0.623870000000     0.439060000000    -0.0563513  
C182     C      0.460370000000     0.644940000000     0.441810000000     0.0216054  
C183     C      0.473600000000     0.649750000000     0.469710000000    -0.056273   
C184     C      0.467490000000     0.633730000000     0.494010000000     0.0124007  
C185     C      0.447920000000     0.612550000000     0.491080000000    -0.0725836  
C186     C      0.434380000000     0.607860000000     0.463530000000     0.0124402  
C187     C      0.467960000000     0.661450000000     0.415030000000     0.0216812  
C188     C      0.467540000000     0.654470000000     0.383100000000    -0.056347   
C189     C      0.476810000000     0.670180000000     0.358210000000     0.0125884  
C190     C      0.486570000000     0.693220000000     0.364660000000    -0.0726493  
C191     C      0.486160000000     0.700160000000     0.396370000000     0.0124652  
C192     C      0.477020000000     0.684430000000     0.421330000000    -0.0563968  
C193     C      0.505850000000     0.482340000000     0.517220000000    -0.056034   
C194     C      0.485570000000     0.479480000000     0.504720000000     0.0216444  
C195     C      0.473520000000     0.462210000000     0.482220000000    -0.0558981  
C196     C      0.481570000000     0.448190000000     0.472450000000     0.0123386  
C197     C      0.501760000000     0.451020000000     0.485120000000    -0.0722594  
C198     C      0.513800000000     0.468230000000     0.507610000000     0.0122693  
C199     C      0.476980000000     0.494370000000     0.515220000000     0.0217675  
C200     C      0.479130000000     0.501460000000     0.547500000000    -0.0560598  
C201     C      0.470910000000     0.515300000000     0.557400000000     0.0127111  
C202     C      0.460220000000     0.522250000000     0.535320000000    -0.072708   
C203     C      0.458100000000     0.515250000000     0.503050000000     0.0124207  
C204     C      0.466450000000     0.501540000000     0.493100000000    -0.0560736  
C205     C      0.150320000000     0.804150000000     0.805100000000    -0.0560381  
C206     C      0.152240000000     0.811220000000     0.837370000000     0.0217446  
C207     C      0.162420000000     0.803870000000     0.859810000000    -0.0560205  
C208     C      0.170560000000     0.789910000000     0.850210000000     0.0123314  
C209     C      0.168580000000     0.782840000000     0.818010000000    -0.0721218  
C210     C      0.158320000000     0.790060000000     0.795560000000     0.012524   
C211     C      0.143550000000     0.826080000000     0.847610000000     0.0216135  
C212     C      0.155250000000     0.843160000000     0.870530000000    -0.0558721  
C213     C      0.146900000000     0.856900000000     0.880420000000     0.0123591  
C214     C      0.126750000000     0.853990000000     0.867460000000    -0.0725735  
C215     C      0.115130000000     0.837070000000     0.844400000000     0.0122936  
C216     C      0.123390000000     0.823240000000     0.834680000000    -0.0559739  
C217     C      0.493660000000     0.297600000000     0.618020000000    -0.0560919  
C218     C      0.484560000000     0.311520000000     0.612840000000     0.0215746  
C219     C      0.467210000000     0.309310000000     0.633140000000    -0.0564533  
C220     C      0.458920000000     0.293390000000     0.657750000000     0.0122804  
C221     C      0.467720000000     0.279210000000     0.662690000000    -0.0725932  
C222     C      0.485260000000     0.281520000000     0.642670000000     0.012238   
C223     C      0.492570000000     0.328000000000     0.585970000000     0.0216228  
C224     C      0.515690000000     0.341890000000     0.579500000000    -0.0561347  
C225     C      0.522970000000     0.357820000000     0.554680000000     0.0122947  
C226     C      0.507250000000     0.360000000000     0.535770000000    -0.0725988  
C227     C      0.484170000000     0.345910000000     0.542080000000     0.0123112  
C228     C      0.476930000000     0.330140000000     0.566870000000    -0.0564664  
C229     C      0.109780000000     0.953970000000     0.767660000000    -0.0565231  
C230     C      0.127350000000     0.976180000000     0.772380000000     0.0217831  
C231     C      0.138130000000     0.982340000000     0.802490000000    -0.0565962  
C232     C      0.131890000000     0.966510000000     0.827100000000     0.0129491  
C233     C      0.114570000000     0.944220000000     0.822280000000    -0.0733279  
C234     C      0.103330000000     0.938160000000     0.792470000000     0.0126771  
C235     C      0.135330000000     0.992650000000     0.745560000000     0.0216402  
C236     C      0.139480000000     0.986690000000     0.715040000000    -0.0564909  
C237     C      0.148830000000     0.002630000000     0.690460000000     0.0127858  
C238     C      0.154020000000     0.024820000000     0.695740000000    -0.0727454  
C239     C      0.149200000000     0.030630000000     0.725930000000     0.012655   
C240     C      0.140080000000     0.014730000000     0.750690000000    -0.0564328  
C241     C      0.298150000000     0.136160000000     0.643280000000    -0.0560739  
C242     C      0.302600000000     0.142270000000     0.675990000000     0.021792   
C243     C      0.284400000000     0.134190000000     0.697630000000    -0.0562223  
C244     C      0.262300000000     0.120630000000     0.686780000000     0.0124809  
C245     C      0.257890000000     0.114680000000     0.654080000000    -0.0728306  
C246     C      0.276040000000     0.122450000000     0.632480000000     0.0127259  
C247     C      0.326100000000     0.157200000000     0.687450000000     0.0217209  
C248     C      0.343960000000     0.155170000000     0.674880000000    -0.056216   
C249     C      0.366030000000     0.169360000000     0.685430000000     0.0125081  
C250     C      0.370740000000     0.185790000000     0.708940000000    -0.0726165  
C251     C      0.352930000000     0.187770000000     0.721670000000     0.0125698  
C252     C      0.330880000000     0.173700000000     0.710970000000    -0.0560197  
C253     C      0.798570000000     0.318300000000     0.051660000000    -0.0562387  
C254     C      0.795690000000     0.325110000000     0.082340000000     0.0216189  
C255     C      0.801980000000     0.347690000000     0.087100000000    -0.056272   
C256     C      0.811650000000     0.363260000000     0.062010000000     0.0123482  
C257     C      0.815320000000     0.356570000000     0.031730000000    -0.0725292  
C258     C      0.808310000000     0.333850000000     0.026670000000     0.0124111  
C259     C      0.787750000000     0.309020000000     0.109710000000     0.0216322  
C260     C      0.770250000000     0.286690000000     0.105590000000    -0.0563379  
C261     C      0.764340000000     0.271100000000     0.130590000000     0.0123336  
C262     C      0.775910000000     0.277510000000     0.160120000000    -0.0724614  
C263     C      0.792930000000     0.299980000000     0.164540000000     0.0123421  
C264     C      0.798750000000     0.315560000000     0.139660000000    -0.0562126  
C265     C      0.161260000000     0.630470000000     0.950640000000    -0.0562821  
C266     C      0.150460000000     0.642380000000     0.942120000000     0.021674   
C267     C      0.131150000000     0.638330000000     0.959270000000    -0.056599   
C268     C      0.122740000000     0.622670000000     0.984240000000     0.0125531  
C269     C      0.133350000000     0.610590000000     0.992630000000    -0.0728597  
C270     C      0.152710000000     0.614630000000     0.975590000000     0.0125136  
C271     C      0.158950000000     0.658860000000     0.915270000000     0.0216237  
C272     C      0.182010000000     0.674780000000     0.912230000000    -0.0561147  
C273     C      0.189640000000     0.690900000000     0.887670000000     0.0124115  
C274     C      0.174340000000     0.691260000000     0.865590000000    -0.0727126  
C275     C      0.151370000000     0.675070000000     0.868360000000     0.0125215  
C276     C      0.143770000000     0.659110000000     0.892910000000    -0.0565637  
C277     C      0.009850000000     0.486990000000     0.009460000000    -0.0548757  
C278     C      0.991940000000     0.488760000000     0.022430000000     0.0206575  
C279     C      0.996720000000     0.505310000000     0.045850000000    -0.05709    
C280     C      0.018840000000     0.519740000000     0.056010000000     0.0138607  
C281     C      0.036710000000     0.518040000000     0.042840000000    -0.0727161  
C282     C      0.031980000000     0.501510000000     0.019480000000     0.0123284  
C283     C      0.968420000000     0.473560000000     0.011370000000     0.0221012  
C284     C      0.963770000000     0.467490000000     0.978680000000    -0.0566315  
C285     C      0.941630000000     0.453540000000     0.968200000000     0.0132974  
C286     C      0.923630000000     0.445460000000     0.990120000000    -0.0739946  
C287     C      0.928240000000     0.451360000000     0.022810000000     0.0130765  
C288     C      0.950380000000     0.465190000000     0.033340000000    -0.056645   
C289     C      0.504790000000     0.681560000000     0.708830000000    -0.0560463  
C290     C      0.483780000000     0.662910000000     0.716790000000     0.0216003  
C291     C      0.471590000000     0.664690000000     0.742740000000    -0.0561675  
C292     C      0.479800000000     0.684970000000     0.759390000000     0.0124064  
C293     C      0.500300000000     0.703880000000     0.750290000000    -0.0724954  
C294     C      0.512940000000     0.701790000000     0.725360000000     0.0125353  
C295     C      0.473870000000     0.642560000000     0.696100000000     0.0217134  
C296     C      0.451210000000     0.632290000000     0.686510000000    -0.0561509  
C297     C      0.442560000000     0.615130000000     0.663600000000     0.012477   
C298     C      0.456360000000     0.607820000000     0.649760000000    -0.0726348  
C299     C      0.478710000000     0.617280000000     0.660460000000     0.0125446  
C300     C      0.487380000000     0.634500000000     0.683390000000    -0.0563252  
C301     C      0.826340000000     0.969420000000     0.952700000000    -0.0565104  
C302     C      0.812150000000     0.972780000000     0.973470000000     0.0218554  
C303     C      0.789250000000     0.956190000000     0.975170000000    -0.0562425  
C304     C      0.781000000000     0.936190000000     0.957920000000     0.0131764  
C305     C      0.795470000000     0.932330000000     0.938600000000    -0.0732343  
C306     C      0.818090000000     0.949400000000     0.935450000000     0.0131601  
C307     C      0.821530000000     0.992430000000     0.995520000000     0.0217334  
C308     C      0.841960000000     0.999290000000     0.011620000000    -0.0563174  
C309     C      0.849840000000     0.016180000000     0.034860000000     0.0126066  
C310     C      0.837500000000     0.026640000000     0.042630000000    -0.0730909  
C311     C      0.817440000000     0.020360000000     0.025850000000     0.0125226  
C312     C      0.809500000000     0.003370000000     0.002550000000    -0.0564072  
C313     C      0.676360000000     0.828380000000     0.827240000000    -0.0563804  
C314     C      0.658350000000     0.818690000000     0.849260000000     0.021967   
C315     C      0.663000000000     0.817200000000     0.881900000000    -0.0562666  
C316     C      0.685120000000     0.825340000000     0.892290000000     0.013095   
C317     C      0.703100000000     0.835280000000     0.870310000000    -0.0735597  
C318     C      0.698490000000     0.836640000000     0.837670000000     0.0128725  
C319     C      0.634830000000     0.810370000000     0.838290000000     0.0216356  
C320     C      0.630180000000     0.822180000000     0.814870000000    -0.0559472  
C321     C      0.608080000000     0.814430000000     0.804720000000     0.0124906  
C322     C      0.590120000000     0.794790000000     0.817920000000    -0.0724134  
C323     C      0.594710000000     0.782970000000     0.841320000000     0.0123393  
C324     C      0.616810000000     0.790620000000     0.851320000000    -0.0561257  
C325     C      0.510360000000     0.162970000000     0.839850000000    -0.0561964  
C326     C      0.487660000000     0.150280000000     0.830470000000     0.0217495  
C327     C      0.474330000000     0.128510000000     0.843010000000    -0.0563861  
C328     C      0.483230000000     0.120040000000     0.865540000000     0.0126263  
C329     C      0.505630000000     0.133200000000     0.876020000000    -0.0727831  
C330     C      0.519240000000     0.154530000000     0.862370000000     0.0125344  
C331     C      0.477560000000     0.160590000000     0.810130000000     0.0215341  
C332     C      0.456500000000     0.157840000000     0.818350000000    -0.0560324  
C333     C      0.448170000000     0.169780000000     0.802100000000     0.0123944  
C334     C      0.460680000000     0.184750000000     0.777220000000    -0.0724017  
C335     C      0.481220000000     0.186730000000     0.767880000000     0.0123771  
C336     C      0.489600000000     0.174790000000     0.784220000000    -0.0560944  
C337     C      0.507800000000     0.816750000000     0.219610000000    -0.0562866  
C338     C      0.484890000000     0.810170000000     0.221610000000     0.0219413  
C339     C      0.470830000000     0.792460000000     0.242410000000    -0.0566257  
C340     C      0.479200000000     0.780760000000     0.259350000000     0.0132529  
C341     C      0.501800000000     0.786550000000     0.255860000000    -0.0734379  
C342     C      0.516160000000     0.805080000000     0.236570000000     0.0133032  
C343     C      0.475350000000     0.820270000000     0.199720000000     0.0216694  
C344     C      0.487320000000     0.843350000000     0.192600000000    -0.0563283  
C345     C      0.479270000000     0.852220000000     0.169340000000     0.0124793  
C346     C      0.459170000000     0.838170000000     0.152690000000    -0.0729188  
C347     C      0.446880000000     0.815270000000     0.160590000000     0.0125558  
C348     C      0.454860000000     0.806430000000     0.183800000000    -0.0562647  
C349     C      0.468230000000     0.784220000000     0.911000000000    -0.0559914  
C350     C      0.477690000000     0.807380000000     0.916220000000     0.0215184  
C351     C      0.495230000000     0.822490000000     0.896020000000    -0.0563717  
C352     C      0.503330000000     0.814710000000     0.871440000000     0.012218   
C353     C      0.494140000000     0.791600000000     0.866400000000    -0.0723908  
C354     C      0.476440000000     0.776390000000     0.886360000000     0.012086   
C355     C      0.469820000000     0.816010000000     0.942980000000     0.0216104  
C356     C      0.446730000000     0.806900000000     0.949320000000    -0.0561322  
C357     C      0.439610000000     0.815770000000     0.973960000000     0.0122816  
C358     C      0.455460000000     0.833780000000     0.992830000000    -0.0726184  
C359     C      0.478510000000     0.842650000000     0.986670000000     0.0122896  
C360     C      0.485590000000     0.833890000000     0.962070000000    -0.0564349  
C361     C      0.457160000000     0.958070000000     0.009920000000    -0.0559816  
C362     C      0.477590000000     0.975760000000     0.021890000000     0.0216301  
C363     C      0.489890000000     0.970800000000     0.044120000000    -0.0558726  
C364     C      0.481940000000     0.948730000000     0.054140000000     0.0123564  
C365     C      0.461590000000     0.931100000000     0.041980000000    -0.0722976  
C366     C      0.449300000000     0.936000000000     0.019750000000     0.0122534  
C367     C      0.486070000000     0.999250000000     0.011140000000     0.0217496  
C368     C      0.483470000000     0.003920000000     0.978920000000    -0.0559797  
C369     C      0.491550000000     0.025980000000     0.968770000000     0.0126549  
C370     C      0.502570000000     0.043900000000     0.990530000000    -0.0727901  
C371     C      0.505130000000     0.039290000000     0.022730000000     0.012499   
C372     C      0.496910000000     0.017220000000     0.032950000000    -0.0561524  
C373     C      0.121610000000     0.490850000000     0.152060000000    -0.0561421  
C374     C      0.142280000000     0.492860000000     0.143400000000     0.0216731  
C375     C      0.154230000000     0.506560000000     0.117040000000    -0.0561701  
C376     C      0.146140000000     0.518730000000     0.100610000000     0.0124663  
C377     C      0.126000000000     0.517490000000     0.110350000000    -0.0725394  
C378     C      0.113580000000     0.503030000000     0.135740000000     0.0126146  
C379     C      0.152120000000     0.482300000000     0.163730000000     0.0217312  
C380     C      0.174950000000     0.494590000000     0.172610000000    -0.0561976  
C381     C      0.183650000000     0.486010000000     0.195160000000     0.0126432  
C382     C      0.169730000000     0.464920000000     0.209350000000    -0.0728942  
C383     C      0.147190000000     0.452130000000     0.199350000000     0.0128078  
C384     C      0.138460000000     0.460740000000     0.176790000000    -0.0564261  
C385     C      0.173630000000     0.149940000000     0.547110000000    -0.056089   
C386     C      0.151640000000     0.145600000000     0.552680000000     0.0217321  
C387     C      0.138590000000     0.130070000000     0.576760000000    -0.056371   
C388     C      0.146850000000     0.118200000000     0.593530000000     0.0128358  
C389     C      0.168340000000     0.121630000000     0.586540000000    -0.0731494  
C390     C      0.181880000000     0.138100000000     0.563860000000     0.0128575  
C391     C      0.141680000000     0.155490000000     0.531210000000     0.02169    
C392     C      0.154480000000     0.177800000000     0.520390000000    -0.0562856  
C393     C      0.145800000000     0.186100000000     0.497210000000     0.0124691  
C394     C      0.124200000000     0.172200000000     0.484310000000    -0.0733693  
C395     C      0.111110000000     0.150190000000     0.496030000000     0.0125641  
C396     C      0.119740000000     0.141950000000     0.519180000000    -0.0562472  
C397     C      0.152030000000     0.301480000000     0.375470000000    -0.0556788  
C398     C      0.140190000000     0.306530000000     0.352550000000     0.0215428  
C399     C      0.120170000000     0.288840000000     0.339520000000    -0.055871   
C400     C      0.112240000000     0.266700000000     0.349090000000     0.0121345  
C401     C      0.124050000000     0.261730000000     0.372080000000    -0.0716415  
C402     C      0.144010000000     0.279350000000     0.385210000000     0.01222    
C403     C      0.148750000000     0.330120000000     0.342230000000     0.0218595  
C404     C      0.158930000000     0.347810000000     0.364600000000    -0.056122   
C405     C      0.167380000000     0.370000000000     0.354820000000     0.0124624  
C406     C      0.165690000000     0.375010000000     0.322490000000    -0.0726693  
C407     C      0.155280000000     0.357370000000     0.300160000000     0.0126858  
C408     C      0.146980000000     0.335180000000     0.309890000000    -0.0560432  
C409     C      0.122930000000     0.625010000000     0.639910000000    -0.0561747  
C410     C      0.145520000000     0.642020000000     0.635890000000     0.0219521  
C411     C      0.158940000000     0.638660000000     0.613580000000    -0.0564526  
C412     C      0.150360000000     0.618280000000     0.597130000000     0.0131185  
C413     C      0.128140000000     0.600870000000     0.602560000000    -0.0734564  
C414     C      0.114340000000     0.604700000000     0.623400000000     0.0133259  
C415     C      0.155500000000     0.662090000000     0.657220000000     0.0215599  
C416     C      0.143060000000     0.672210000000     0.666540000000    -0.0560783  
C417     C      0.151480000000     0.689210000000     0.689840000000     0.012328   
C418     C      0.172510000000     0.696410000000     0.704270000000    -0.0728731  
C419     C      0.185370000000     0.687020000000     0.693900000000     0.0123139  
C420     C      0.176960000000     0.670060000000     0.670710000000    -0.0559849  
C421     C      0.151150000000     0.521810000000     0.437100000000    -0.0563537  
C422     C      0.160330000000     0.508090000000     0.443520000000     0.021606   
C423     C      0.161210000000     0.502040000000     0.475580000000    -0.0562011  
C424     C      0.152280000000     0.508770000000     0.500500000000     0.0125126  
C425     C      0.142390000000     0.521820000000     0.493950000000    -0.0725608  
C426     C      0.142350000000     0.528680000000     0.462090000000     0.0124242  
C427     C      0.167550000000     0.498850000000     0.416770000000     0.0216374  
C428     C      0.153990000000     0.490000000000     0.389210000000    -0.0563255  
C429     C      0.159800000000     0.479860000000     0.364940000000     0.0124536  
C430     C      0.179370000000     0.478420000000     0.367530000000    -0.0725527  
C431     C      0.193220000000     0.487670000000     0.394740000000     0.0123997  
C432     C      0.187310000000     0.497690000000     0.419210000000    -0.0563333  
C433     C      0.800860000000     0.332230000000     0.399790000000    -0.0558086  
C434     C      0.816700000000     0.327070000000     0.387200000000     0.0218796  
C435     C      0.839670000000     0.341680000000     0.393970000000    -0.0562595  
C436     C      0.846690000000     0.361600000000     0.410950000000     0.0131565  
C437     C      0.830890000000     0.367170000000     0.422120000000    -0.0730017  
C438     C      0.807880000000     0.351970000000     0.417290000000     0.0130383  
C439     C      0.809440000000     0.307650000000     0.364920000000     0.0218559  
C440     C      0.788380000000     0.287940000000     0.368660000000    -0.0562032  
C441     C      0.780400000000     0.271010000000     0.345320000000     0.0128347  
C442     C      0.793460000000     0.273250000000     0.318020000000    -0.0727271  
C443     C      0.815000000000     0.292290000000     0.315130000000     0.0129763  
C444     C      0.822830000000     0.309370000000     0.338150000000    -0.0559289  
C445     C      0.961650000000     0.486780000000     0.482300000000    -0.056107   
C446     C      0.966320000000     0.476070000000     0.507430000000     0.0216681  
C447     C      0.948250000000     0.457240000000     0.522250000000    -0.0561499  
C448     C      0.926100000000     0.449370000000     0.512260000000     0.012189   
C449     C      0.921510000000     0.460040000000     0.487060000000    -0.0721204  
C450     C      0.939510000000     0.478800000000     0.472160000000     0.0123632  
C451     C      0.989930000000     0.484560000000     0.518150000000     0.0209449  
C452     C      0.007620000000     0.492910000000     0.495600000000    -0.055019   
C453     C      0.029850000000     0.501460000000     0.505690000000     0.0127002  
C454     C      0.034920000000     0.501720000000     0.538550000000    -0.0735407  
C455     C      0.017260000000     0.493050000000     0.561100000000     0.0142703  
C456     C      0.995020000000     0.484640000000     0.551030000000    -0.0573529  
C457     C      0.476400000000     0.337680000000     0.334560000000    -0.0562663  
C458     C      0.488130000000     0.326400000000     0.327680000000     0.0216002  
C459     C      0.508310000000     0.332780000000     0.344190000000    -0.0562394  
C460     C      0.516230000000     0.349510000000     0.367680000000     0.012536   
C461     C      0.504190000000     0.360310000000     0.375270000000    -0.0729842  
C462     C      0.484380000000     0.354510000000     0.358100000000     0.0124692  
C463     C      0.478670000000     0.306920000000     0.305310000000     0.0220097  
C464     C      0.455650000000     0.290610000000     0.306510000000    -0.056396   
C465     C      0.447270000000     0.270680000000     0.289030000000     0.0134259  
C466     C      0.461720000000     0.266620000000     0.269980000000    -0.0735493  
C467     C      0.484470000000     0.283450000000     0.267290000000     0.0133156  
C468     C      0.492860000000     0.303400000000     0.284770000000    -0.0566919  
C469     C      0.486000000000     0.189380000000     0.103090000000    -0.0563718  
C470     C      0.495560000000     0.176010000000     0.109590000000     0.0216288  
C471     C      0.496550000000     0.170060000000     0.141670000000    -0.0562574  
C472     C      0.487310000000     0.176490000000     0.166520000000     0.0125125  
C473     C      0.477000000000     0.189140000000     0.159880000000    -0.0725283  
C474     C      0.476880000000     0.195950000000     0.128010000000     0.0123179  
C475     C      0.503020000000     0.166960000000     0.082880000000     0.0215722  
C476     C      0.489410000000     0.157800000000     0.055440000000    -0.0562078  
C477     C      0.495410000000     0.147790000000     0.031220000000     0.0123722  
C478     C      0.515240000000     0.146810000000     0.033740000000    -0.0725226  
C479     C      0.529150000000     0.156390000000     0.060830000000     0.0123103  
C480     C      0.523030000000     0.166270000000     0.085250000000    -0.0562407  
C481     C      0.138750000000     0.994890000000     0.077750000000    -0.0563965  
C482     C      0.150660000000     0.993690000000     0.050970000000     0.0217967  
C483     C      0.171170000000     0.012770000000     0.042410000000    -0.0562515  
C484     C      0.179040000000     0.032890000000     0.059160000000     0.0129755  
C485     C      0.166640000000     0.034380000000     0.084980000000    -0.0729938  
C486     C      0.146720000000     0.015030000000     0.094690000000     0.0128725  
C487     C      0.140850000000     0.973470000000     0.030040000000     0.0216439  
C488     C      0.154530000000     0.965850000000     0.016570000000    -0.056313   
C489     C      0.145870000000     0.948800000000     0.993380000000     0.0124839  
C490     C      0.123410000000     0.939140000000     0.983090000000    -0.0722074  
C491     C      0.109480000000     0.946020000000     0.997670000000     0.0125097  
C492     C      0.118090000000     0.962960000000     0.020920000000    -0.0560674  
C493     C      0.144900000000     0.165750000000     0.285820000000    -0.0562468  
C494     C      0.130790000000     0.143320000000     0.276260000000     0.0217521  
C495     C      0.109010000000     0.131190000000     0.289590000000    -0.055836   
C496     C      0.101800000000     0.141100000000     0.312510000000     0.0125537  
C497     C      0.116290000000     0.163270000000     0.322740000000    -0.073027   
C498     C      0.137810000000     0.175520000000     0.308910000000     0.0128808  
C499     C      0.139060000000     0.132830000000     0.252690000000     0.0218307  
C500     C      0.124730000000     0.117790000000     0.228970000000    -0.0559321  
C501     C      0.133130000000     0.109280000000     0.205610000000     0.0126475  
C502     C      0.156060000000     0.115820000000     0.205340000000    -0.0735556  
C503     C      0.170180000000     0.130180000000     0.229650000000     0.0132597  
C504     C      0.161760000000     0.138420000000     0.253170000000    -0.056354   
C505     C      0.328520000000     0.147400000000     0.213660000000    -0.0563192  
C506     C      0.323810000000     0.150000000000     0.181460000000     0.0219656  
C507     C      0.341870000000     0.161380000000     0.159840000000    -0.0564929  
C508     C      0.364080000000     0.170210000000     0.170250000000     0.0128469  
C509     C      0.368760000000     0.167770000000     0.202470000000    -0.0734982  
C510     C      0.350740000000     0.156140000000     0.224030000000     0.0129725  
C511     C      0.300190000000     0.141170000000     0.170590000000     0.0214906  
C512     C      0.282710000000     0.120400000000     0.181860000000    -0.0559705  
C513     C      0.260480000000     0.112320000000     0.172100000000     0.012072   
C514     C      0.255220000000     0.124760000000     0.150720000000    -0.0713398  
C515     C      0.272680000000     0.145410000000     0.139190000000     0.0121623  
C516     C      0.294900000000     0.153550000000     0.149070000000    -0.0557764  
C517     C      0.784600000000     0.469660000000     0.849370000000    -0.0562582  
C518     C      0.804960000000     0.483500000000     0.865590000000     0.0216302  
C519     C      0.816880000000     0.506610000000     0.858680000000    -0.0562826  
C520     C      0.808890000000     0.515530000000     0.835400000000     0.0124068  
C521     C      0.788890000000     0.501480000000     0.818530000000    -0.0729442  
C522     C      0.776660000000     0.478540000000     0.826160000000     0.0124974  
C523     C      0.814390000000     0.473390000000     0.887630000000     0.0218894  
C524     C      0.800210000000     0.455600000000     0.908240000000    -0.0565577  
C525     C      0.808510000000     0.443930000000     0.925400000000     0.0132144  
C526     C      0.831180000000     0.449840000000     0.922350000000    -0.0734701  
C527     C      0.845640000000     0.468440000000     0.903240000000     0.0133191  
C528     C      0.837340000000     0.480070000000     0.886050000000    -0.0563137  
C529     C      0.815150000000     0.499470000000     0.625950000000    -0.0564469  
C530     C      0.799550000000     0.480400000000     0.608630000000     0.0215501  
C531     C      0.776590000000     0.470060000000     0.616710000000    -0.0560736  
C532     C      0.769380000000     0.478830000000     0.641380000000     0.0122258  
C533     C      0.785050000000     0.497960000000     0.658580000000    -0.0725305  
C534     C      0.808000000000     0.508120000000     0.650630000000     0.0122691  
C535     C      0.807460000000     0.471730000000     0.582010000000     0.0216584  
C536     C      0.823520000000     0.486730000000     0.559970000000    -0.0566208  
C537     C      0.831820000000     0.478970000000     0.535620000000     0.0124648  
C538     C      0.824330000000     0.456000000000     0.532720000000    -0.0729925  
C539     C      0.808040000000     0.440880000000     0.554480000000     0.012434   
C540     C      0.799610000000     0.448670000000     0.578850000000    -0.0561834  
C541     C      0.826220000000     0.844140000000     0.460940000000    -0.0557804  
C542     C      0.810030000000     0.823160000000     0.473630000000     0.0218796  
C543     C      0.787130000000     0.815170000000     0.467180000000    -0.0562824  
C544     C      0.780540000000     0.828450000000     0.450530000000     0.0133249  
C545     C      0.796700000000     0.849810000000     0.439320000000    -0.0730634  
C546     C      0.819620000000     0.857230000000     0.443730000000     0.0130076  
C547     C      0.816900000000     0.810710000000     0.495800000000     0.0219379  
C548     C      0.837670000000     0.811670000000     0.491900000000    -0.0563559  
C549     C      0.845400000000     0.802590000000     0.515240000000     0.0130814  
C550     C      0.832370000000     0.792010000000     0.542710000000    -0.0730198  
C551     C      0.811060000000     0.789820000000     0.545720000000     0.01316    
C552     C      0.803490000000     0.799220000000     0.522700000000    -0.0559353  
C553     C      0.856140000000     0.830200000000     0.754710000000    -0.0563387  
C554     C      0.838610000000     0.834820000000     0.750570000000     0.0216109  
C555     C      0.827470000000     0.830000000000     0.720710000000    -0.0562226  
C556     C      0.833180000000     0.820100000000     0.695970000000     0.0123885  
C557     C      0.850210000000     0.814840000000     0.700420000000    -0.0724272  
C558     C      0.861930000000     0.820370000000     0.729830000000     0.012306   
C559     C      0.830750000000     0.843060000000     0.777860000000     0.0216297  
C560     C      0.827980000000     0.833530000000     0.808650000000    -0.0561817  
C561     C      0.818290000000     0.839360000000     0.833580000000     0.0124481  
C562     C      0.811220000000     0.854930000000     0.828370000000    -0.0725323  
C563     C      0.814800000000     0.865160000000     0.797990000000     0.0123634  
C564     C      0.824410000000     0.859230000000     0.772940000000    -0.0563237  
C565     C      0.818940000000     0.634520000000     0.711940000000    -0.0558853  
C566     C      0.806940000000     0.639430000000     0.689130000000     0.0216099  
C567     C      0.786820000000     0.621700000000     0.676440000000    -0.0561031  
C568     C      0.778990000000     0.599610000000     0.686150000000     0.0123037  
C569     C      0.791000000000     0.594740000000     0.708920000000    -0.072323   
C570     C      0.811030000000     0.612420000000     0.721790000000     0.0123296  
C571     C      0.815410000000     0.662930000000     0.678480000000     0.0219652  
C572     C      0.825550000000     0.680780000000     0.700600000000    -0.0564222  
C573     C      0.833840000000     0.702870000000     0.690470000000     0.0129759  
C574     C      0.832060000000     0.707620000000     0.658030000000    -0.0737546  
C575     C      0.821720000000     0.689810000000     0.635960000000     0.0132168  
C576     C      0.813550000000     0.667730000000     0.646040000000    -0.0563485  
C577     C      0.966820000000     0.133630000000     0.080340000000    -0.0565966  
C578     C      0.968560000000     0.146790000000     0.053430000000     0.0221018  
C579     C      0.949620000000     0.148020000000     0.044030000000    -0.0564127  
C580     C      0.929130000000     0.135530000000     0.060140000000     0.0126263  
C581     C      0.927110000000     0.121560000000     0.086060000000    -0.0727076  
C582     C      0.946300000000     0.121170000000     0.096560000000     0.0125961  
C583     C      0.989240000000     0.157510000000     0.033270000000     0.0202159  
C584     C      0.997130000000     0.178820000000     0.019580000000    -0.0572847  
C585     C      0.014740000000     0.187490000000     0.997170000000     0.0137596  
C586     C      0.024730000000     0.174970000000     0.987940000000    -0.0727398  
C587     C      0.017550000000     0.154150000000     0.002750000000     0.0119218  
C588     C      0.000020000000     0.145520000000     0.025180000000    -0.0534279  
C589     C      0.137940000000     0.126220000000     0.007680000000    -0.0563851  
C590     C      0.151290000000     0.148840000000     0.998690000000     0.0217289  
C591     C      0.172900000000     0.161680000000     0.012280000000    -0.0563333  
C592     C      0.180670000000     0.152260000000     0.035090000000     0.0122613  
C593     C      0.166930000000     0.129840000000     0.044810000000    -0.0732561  
C594     C      0.145670000000     0.116850000000     0.030440000000     0.0127456  
C595     C      0.141780000000     0.159220000000     0.977290000000     0.0217053  
C596     C      0.127960000000     0.147250000000     0.951010000000    -0.0563118  
C597     C      0.116280000000     0.155610000000     0.933940000000     0.0126898  
C598     C      0.118200000000     0.176110000000     0.942790000000    -0.0726516  
C599     C      0.133040000000     0.188690000000     0.967800000000     0.0125169  
C600     C      0.144700000000     0.180330000000     0.984870000000    -0.0560458  
C601     C      0.325350000000     0.507510000000     0.609280000000    -0.056414   
C602     C      0.322430000000     0.491890000000     0.633280000000     0.02175    
C603     C      0.339870000000     0.487380000000     0.638890000000    -0.0560945  
C604     C      0.360270000000     0.499210000000     0.622310000000     0.0127506  
C605     C      0.363670000000     0.515790000000     0.599740000000    -0.0729387  
C606     C      0.345770000000     0.519330000000     0.592640000000     0.0127939  
C607     C      0.302420000000     0.482150000000     0.654800000000     0.0217292  
C608     C      0.294680000000     0.495930000000     0.667260000000    -0.0561763  
C609     C      0.277930000000     0.487900000000     0.690860000000     0.0124937  
C610     C      0.268500000000     0.465880000000     0.702540000000    -0.0730607  
C611     C      0.275420000000     0.451710000000     0.689040000000     0.0125353  
C612     C      0.292280000000     0.459800000000     0.665450000000    -0.0564307  
C613     C      0.143150000000     0.456750000000     0.725090000000    -0.0561134  
C614     C      0.151070000000     0.479620000000     0.719390000000     0.0218152  
C615     C      0.171970000000     0.495630000000     0.732660000000    -0.0556918  
C616     C      0.185020000000     0.488920000000     0.749820000000     0.0129239  
C617     C      0.177650000000     0.466070000000     0.753660000000    -0.0728187  
C618     C      0.156380000000     0.450050000000     0.741760000000     0.0130546  
C619     C      0.138630000000     0.486710000000     0.697520000000     0.0219609  
C620     C      0.127390000000     0.473820000000     0.670120000000    -0.0559756  
C621     C      0.117990000000     0.481650000000     0.647480000000     0.0133149  
C622     C      0.119890000000     0.502690000000     0.651410000000    -0.0727704  
C623     C      0.130210000000     0.515180000000     0.679370000000     0.013095   
C624     C      0.139300000000     0.507190000000     0.702310000000    -0.0561796  
C625     C      0.151280000000     0.350090000000     0.853310000000    -0.0560764  
C626     C      0.153550000000     0.332560000000     0.840270000000     0.0216958  
C627     C      0.170010000000     0.337690000000     0.816420000000    -0.055884   
C628     C      0.183780000000     0.359750000000     0.805830000000     0.0124451  
C629     C      0.181550000000     0.377220000000     0.819050000000    -0.07218    
C630     C      0.165190000000     0.372170000000     0.842920000000     0.0124674  
C631     C      0.138900000000     0.309060000000     0.851570000000     0.0218664  
C632     C      0.132780000000     0.304440000000     0.884260000000    -0.0560905  
C633     C      0.119150000000     0.282360000000     0.894880000000     0.0128851  
C634     C      0.111500000000     0.264390000000     0.873130000000    -0.0729698  
C635     C      0.117550000000     0.268940000000     0.840480000000     0.0126748  
C636     C      0.131000000000     0.291020000000     0.829790000000    -0.056189   
C637     C      0.668560000000     0.146480000000     0.857180000000    -0.0564521  
C638     C      0.659370000000     0.159380000000     0.868240000000     0.021773   
C639     C      0.668160000000     0.181270000000     0.856300000000    -0.0563511  
C640     C      0.684990000000     0.189680000000     0.832820000000     0.012651   
C641     C      0.693470000000     0.176440000000     0.820720000000    -0.0731861  
C642     C      0.685490000000     0.154950000000     0.833690000000     0.012598   
C643     C      0.639300000000     0.149530000000     0.889670000000     0.0216806  
C644     C      0.621220000000     0.127770000000     0.883780000000    -0.0560522  
C645     C      0.600930000000     0.119640000000     0.900450000000     0.0126325  
C646     C      0.598260000000     0.133080000000     0.923400000000    -0.0728459  
C647     C      0.616730000000     0.154320000000     0.930680000000     0.0126993  
C648     C      0.637050000000     0.162480000000     0.913960000000    -0.0563722  
C649     C      0.790140000000     0.302740000000     0.790770000000    -0.0558314  
C650     C      0.810840000000     0.307690000000     0.804640000000     0.0218689  
C651     C      0.818840000000     0.292860000000     0.799090000000    -0.0563586  
C652     C      0.805800000000     0.272910000000     0.782070000000     0.0132131  
C653     C      0.784690000000     0.267540000000     0.769660000000    -0.0730151  
C654     C      0.777310000000     0.282970000000     0.773250000000     0.0130549  
C655     C      0.822880000000     0.327070000000     0.827090000000     0.0219235  
C656     C      0.822260000000     0.346910000000     0.822530000000    -0.056357   
C657     C      0.830850000000     0.363750000000     0.846010000000     0.0130468  
C658     C      0.840590000000     0.361290000000     0.874300000000    -0.0730124  
C659     C      0.842470000000     0.342140000000     0.878040000000     0.0131609  
C660     C      0.833570000000     0.325150000000     0.854850000000    -0.055984   
C661     C      0.976100000000     0.164900000000     0.526920000000    -0.056173   
C662     C      0.973350000000     0.153100000000     0.497990000000     0.0220762  
C663     C      0.952610000000     0.133370000000     0.492300000000    -0.0563143  
C664     C      0.935620000000     0.125010000000     0.515670000000     0.0130688  
C665     C      0.938830000000     0.136400000000     0.545010000000    -0.0729337  
C666     C      0.958980000000     0.156740000000     0.550010000000     0.0132912  
C667     C      0.992650000000     0.160460000000     0.475260000000     0.0209058  
C668     C      0.008740000000     0.183360000000     0.471480000000    -0.0548868  
C669     C      0.028470000000     0.190050000000     0.453920000000     0.0129932  
C670     C      0.032350000000     0.174050000000     0.439150000000    -0.0729014  
C671     C      0.015700000000     0.151300000000     0.441060000000     0.0142597  
C672     C      0.996160000000     0.144550000000     0.459140000000    -0.056743   
C673     C      0.843370000000     0.999080000000     0.581610000000    -0.0565705  
C674     C      0.825610000000     0.994800000000     0.560540000000     0.0219648  
C675     C      0.818880000000     0.010830000000     0.557950000000    -0.0562743  
C676     C      0.830450000000     0.031160000000     0.574560000000     0.013423   
C677     C      0.849060000000     0.035970000000     0.594050000000    -0.0736725  
C678     C      0.855000000000     0.019470000000     0.598160000000     0.013221   
C679     C      0.815710000000     0.974920000000     0.538850000000     0.0215902  
C680     C      0.829800000000     0.968500000000     0.523610000000    -0.0561074  
C681     C      0.821280000000     0.951720000000     0.500180000000     0.0123348  
C682     C      0.798450000000     0.940940000000     0.491320000000    -0.072756   
C683     C      0.784090000000     0.946620000000     0.507470000000     0.0123033  
C684     C      0.792640000000     0.963470000000     0.531000000000    -0.056184   
C685     C      0.010020000000     0.139990000000     0.779570000000    -0.0552073  
C686     C      0.989190000000     0.139130000000     0.781190000000     0.0210216  
C687     C      0.984570000000     0.148500000000     0.808080000000    -0.0580332  
C688     C      0.000540000000     0.158880000000     0.832490000000     0.0151279  
C689     C      0.021480000000     0.160040000000     0.830690000000    -0.0729409  
C690     C      0.025980000000     0.150260000000     0.804170000000     0.0123832  
C691     C      0.972750000000     0.129650000000     0.754240000000     0.0215535  
C692     C      0.980070000000     0.135070000000     0.722150000000    -0.0563179  
C693     C      0.964490000000     0.128200000000     0.696960000000     0.0123914  
C694     C      0.941240000000     0.115650000000     0.703260000000    -0.0723945  
C695     C      0.933920000000     0.109390000000     0.735190000000     0.012273   
C696     C      0.949510000000     0.116380000000     0.760430000000    -0.0563625  
C697     C      0.834740000000     0.143180000000     0.698640000000    -0.0563767  
C698     C      0.825610000000     0.151360000000     0.675750000000     0.0219402  
C699     C      0.831030000000     0.151410000000     0.643010000000    -0.0563096  
C700     C      0.845050000000     0.143290000000     0.633400000000     0.0130105  
C701     C      0.853820000000     0.134790000000     0.656280000000    -0.0735026  
C702     C      0.848600000000     0.134910000000     0.689000000000     0.0128465  
C703     C      0.810320000000     0.159570000000     0.685980000000     0.0215074  
C704     C      0.794500000000     0.148670000000     0.710780000000    -0.055825   
C705     C      0.780200000000     0.156410000000     0.720520000000     0.0122642  
C706     C      0.781270000000     0.175130000000     0.705520000000    -0.0719658  
C707     C      0.796950000000     0.185970000000     0.680620000000     0.0121747  
C708     C      0.811360000000     0.178330000000     0.671030000000    -0.0559744  
C709     C      0.322320000000     0.839440000000     0.675570000000    -0.0559036  
C710     C      0.324160000000     0.828110000000     0.702550000000     0.021911   
C711     C      0.344040000000     0.827310000000     0.706460000000    -0.0562727  
C712     C      0.360980000000     0.836380000000     0.683040000000     0.0129896  
C713     C      0.358570000000     0.846760000000     0.655450000000    -0.0729574  
C714     C      0.339400000000     0.848790000000     0.652430000000     0.0132638  
C715     C      0.304640000000     0.815580000000     0.724740000000     0.0218857  
C716     C      0.289870000000     0.823530000000     0.731420000000    -0.0562833  
C717     C      0.269720000000     0.810130000000     0.747990000000     0.0131723  
C718     C      0.264070000000     0.788660000000     0.758770000000    -0.0730709  
C719     C      0.279470000000     0.781300000000     0.754150000000     0.0130535  
C720     C      0.299460000000     0.794530000000     0.737110000000    -0.0557714  
C721     C      0.477780000000     0.843370000000     0.640120000000    -0.0563224  
C722     C      0.470800000000     0.820480000000     0.637860000000     0.0220181  
C723     C      0.452910000000     0.806770000000     0.617020000000    -0.0567332  
C724     C      0.441380000000     0.815460000000     0.600380000000     0.0133512  
C725     C      0.447530000000     0.838040000000     0.604200000000    -0.0735107  
C726     C      0.466270000000     0.852060000000     0.623450000000     0.0133157  
C727     C      0.480610000000     0.810590000000     0.659610000000     0.0216058  
C728     C      0.503780000000     0.822120000000     0.666800000000    -0.056331   
C729     C      0.512380000000     0.813780000000     0.690050000000     0.012516   
C730     C      0.497960000000     0.793820000000     0.706600000000    -0.0729734  
C731     C      0.474970000000     0.781940000000     0.698600000000     0.0125415  
C732     C      0.466410000000     0.790210000000     0.675410000000    -0.056182   
C733     C      0.671000000000     0.154340000000     0.305430000000    -0.0562722  
C734     C      0.654570000000     0.160540000000     0.302100000000     0.0218961  
C735     C      0.658450000000     0.177650000000     0.280160000000    -0.056542   
C736     C      0.678850000000     0.189200000000     0.263440000000     0.0130632  
C737     C      0.695770000000     0.183850000000     0.268290000000    -0.0730342  
C738     C      0.691360000000     0.165860000000     0.288690000000     0.0132059  
C739     C      0.634690000000     0.150850000000     0.323890000000     0.0216366  
C740     C      0.623470000000     0.128030000000     0.332540000000    -0.0562982  
C741     C      0.606610000000     0.119720000000     0.356150000000     0.0124538  
C742     C      0.600730000000     0.134110000000     0.371630000000    -0.0730551  
C743     C      0.611280000000     0.156670000000     0.362010000000     0.0125146  
C744     C      0.628050000000     0.164940000000     0.338460000000    -0.0562395  
C745     C      0.459910000000     0.139940000000     0.336890000000    -0.05589    
C746     C      0.470220000000     0.152580000000     0.364850000000     0.0218602  
C747     C      0.470270000000     0.172760000000     0.369610000000    -0.056201   
C748     C      0.461440000000     0.180690000000     0.346170000000     0.0129282  
C749     C      0.452070000000     0.168470000000     0.317680000000    -0.0726493  
C750     C      0.450800000000     0.147710000000     0.313710000000     0.0131029  
C751     C      0.482440000000     0.145620000000     0.387370000000     0.021892   
C752     C      0.474770000000     0.122770000000     0.392760000000    -0.0562905  
C753     C      0.487970000000     0.116240000000     0.409840000000     0.0132004  
C754     C      0.508940000000     0.132380000000     0.422460000000    -0.0729683  
C755     C      0.515970000000     0.155180000000     0.419050000000     0.0129588  
C756     C      0.502950000000     0.161750000000     0.401480000000    -0.0557976  
C757     C      0.657330000000     0.149650000000     0.628890000000    -0.0565589  
C758     C      0.655480000000     0.165200000000     0.609330000000     0.0216288  
C759     C      0.670060000000     0.188240000000     0.614850000000    -0.0561789  
C760     C      0.686420000000     0.195530000000     0.639150000000     0.0124557  
C761     C      0.688310000000     0.179890000000     0.658530000000    -0.0730211  
C762     C      0.673500000000     0.156890000000     0.653220000000     0.0125004  
C763     C      0.638660000000     0.157180000000     0.582860000000     0.0216489  
C764     C      0.636080000000     0.139720000000     0.562690000000    -0.0565461  
C765     C      0.619950000000     0.131530000000     0.538260000000     0.0124637  
C766     C      0.605890000000     0.140520000000     0.533470000000    -0.0729452  
C767     C      0.608510000000     0.158100000000     0.553470000000     0.0125121  
C768     C      0.624850000000     0.166440000000     0.577860000000    -0.0562051  
C769     C      0.465130000000     0.971160000000     0.552910000000    -0.0563564  
C770     C      0.469980000000     0.976090000000     0.519950000000     0.0219926  
C771     C      0.460620000000     0.958340000000     0.497610000000    -0.0564878  
C772     C      0.447050000000     0.936220000000     0.507980000000     0.0130527  
C773     C      0.442370000000     0.931320000000     0.540910000000    -0.0738198  
C774     C      0.451420000000     0.949020000000     0.563260000000     0.0132253  
C775     C      0.484890000000     0.999590000000     0.508900000000     0.0215252  
C776     C      0.483770000000     0.017380000000     0.523440000000    -0.0559922  
C777     C      0.497830000000     0.039450000000     0.513100000000     0.0121642  
C778     C      0.513230000000     0.044220000000     0.487850000000    -0.0719982  
C779     C      0.514350000000     0.026500000000     0.473240000000     0.01237    
C780     C      0.500400000000     0.004440000000     0.483720000000    -0.0559373  
C781     C      0.953330000000     0.794390000000     0.554380000000    -0.0565334  
C782     C      0.969670000000     0.817320000000     0.555710000000     0.022301   
C783     C      0.966130000000     0.831330000000     0.576500000000    -0.0568493  
C784     C      0.946120000000     0.822860000000     0.594070000000     0.0131793  
C785     C      0.929250000000     0.800210000000     0.591210000000    -0.0731613  
C786     C      0.933350000000     0.785930000000     0.571950000000     0.0132502  
C787     C      0.989130000000     0.826880000000     0.533170000000     0.0200282  
C788     C      0.000510000000     0.815320000000     0.525940000000    -0.0533237  
C789     C      0.017250000000     0.823350000000     0.502150000000     0.0115639  
C790     C      0.022830000000     0.843050000000     0.485080000000    -0.0726973  
C791     C      0.011940000000     0.854940000000     0.493030000000     0.0134881  
C792     C      0.995310000000     0.846960000000     0.516770000000    -0.0569747  
C793     C      0.128200000000     0.972320000000     0.445040000000    -0.0562769  
C794     C      0.141740000000     0.974380000000     0.471720000000     0.0217212  
C795     C      0.143420000000     0.955760000000     0.481040000000    -0.0561417  
C796     C      0.131020000000     0.935270000000     0.465110000000     0.0126231  
C797     C      0.116660000000     0.932920000000     0.439460000000    -0.0726604  
C798     C      0.115810000000     0.951790000000     0.429010000000     0.012584   
C799     C      0.152310000000     0.995010000000     0.491820000000     0.0216977  
C800     C      0.173780000000     0.003130000000     0.505450000000    -0.0563689  
C801     C      0.182250000000     0.020540000000     0.528050000000     0.0127231  
C802     C      0.169390000000     0.030140000000     0.537490000000    -0.0726276  
C803     C      0.148460000000     0.022810000000     0.522640000000     0.0126521  
C804     C      0.140020000000     0.005450000000     0.500050000000    -0.0561378  
C805     C      0.300310000000     0.830040000000     0.176910000000    -0.0564599  
C806     C      0.307890000000     0.816440000000     0.163160000000     0.0217367  
C807     C      0.296840000000     0.793580000000     0.171330000000    -0.0562009  
C808     C      0.279380000000     0.784760000000     0.193870000000     0.0126111  
C809     C      0.272530000000     0.798580000000     0.208750000000    -0.0727883  
C810     C      0.282780000000     0.821190000000     0.199460000000     0.0127107  
C811     C      0.328500000000     0.826330000000     0.142830000000     0.021626   
C812     C      0.330000000000     0.814690000000     0.115990000000    -0.0562253  
C813     C      0.350420000000     0.822720000000     0.099560000000     0.0124629  
C814     C      0.369740000000     0.842480000000     0.109750000000    -0.0725231  
C815     C      0.367960000000     0.854630000000     0.135610000000     0.0124988  
C816     C      0.347590000000     0.846660000000     0.151940000000    -0.0561455  
C817     C      0.122780000000     0.634520000000     0.190650000000    -0.0564034  
C818     C      0.145460000000     0.644860000000     0.200280000000     0.0217872  
C819     C      0.159190000000     0.637290000000     0.187000000000    -0.0563817  
C820     C      0.150710000000     0.620360000000     0.163790000000     0.0127826  
C821     C      0.128270000000     0.610530000000     0.153360000000    -0.0732201  
C822     C      0.114230000000     0.617450000000     0.167470000000     0.0126265  
C823     C      0.155450000000     0.664700000000     0.221940000000     0.021768   
C824     C      0.150780000000     0.682030000000     0.217050000000    -0.0561255  
C825     C      0.162700000000     0.702200000000     0.233940000000     0.0128397  
C826     C      0.179520000000     0.705460000000     0.256120000000    -0.0729997  
C827     C      0.183260000000     0.687660000000     0.262450000000     0.0128697  
C828     C      0.171370000000     0.667490000000     0.245480000000    -0.0564765  
C829     C      0.346260000000     0.815030000000     0.439510000000    -0.0564536  
C830     C      0.323190000000     0.806570000000     0.445130000000     0.0217     
C831     C      0.315850000000     0.806420000000     0.476790000000    -0.0563995  
C832     C      0.331340000000     0.815380000000     0.502070000000     0.0125895  
C833     C      0.354490000000     0.824540000000     0.496280000000    -0.0726304  
C834     C      0.361750000000     0.823850000000     0.464860000000     0.0125092  
C835     C      0.307010000000     0.799330000000     0.417870000000     0.021639   
C836     C      0.312530000000     0.812550000000     0.389910000000    -0.0563742  
C837     C      0.296840000000     0.806790000000     0.365100000000     0.0125016  
C838     C      0.275310000000     0.787600000000     0.367570000000    -0.0726955  
C839     C      0.269920000000     0.774060000000     0.395190000000     0.0124549  
C840     C      0.285590000000     0.779940000000     0.420180000000    -0.056318   
C841     C      0.164430000000     0.819450000000     0.310620000000    -0.0561028  
C842     C      0.157410000000     0.817250000000     0.342960000000     0.0218249  
C843     C      0.164820000000     0.806890000000     0.364970000000    -0.0562124  
C844     C      0.178690000000     0.798740000000     0.354840000000     0.0126008  
C845     C      0.185600000000     0.800880000000     0.322510000000    -0.0729236  
C846     C      0.178430000000     0.811430000000     0.300540000000     0.0128106  
C847     C      0.142340000000     0.825600000000     0.353650000000     0.0217054  
C848     C      0.145010000000     0.845740000000     0.341290000000    -0.0561185  
C849     C      0.130740000000     0.853480000000     0.351130000000     0.0124235  
C850     C      0.113570000000     0.841360000000     0.373720000000    -0.0724745  
C851     C      0.110930000000     0.821310000000     0.386240000000     0.0125789  
C852     C      0.125100000000     0.813470000000     0.376240000000    -0.0559749  
C853     C      0.666940000000     0.477280000000     0.358480000000    -0.0562932  
C854     C      0.656340000000     0.489460000000     0.366480000000     0.0218012  
C855     C      0.664410000000     0.510760000000     0.352640000000    -0.0564694  
C856     C      0.681950000000     0.519190000000     0.330110000000     0.0127944  
C857     C      0.691720000000     0.506460000000     0.320940000000    -0.0727704  
C858     C      0.684420000000     0.485690000000     0.335960000000     0.0127747  
C859     C      0.635640000000     0.478950000000     0.386640000000     0.0216139  
C860     C      0.616870000000     0.480500000000     0.377270000000    -0.0560553  
C861     C      0.596360000000     0.468250000000     0.393390000000     0.0125122  
C862     C      0.594120000000     0.454180000000     0.419290000000    -0.0724417  
C863     C      0.613130000000     0.453450000000     0.429750000000     0.0124594  
C864     C      0.633690000000     0.465690000000     0.413530000000    -0.0561943  
C865     C      0.790950000000     0.473870000000     0.279050000000    -0.0565279  
C866     C      0.806990000000     0.486650000000     0.302780000000     0.0217707  
C867     C      0.811960000000     0.508730000000     0.308520000000    -0.056075   
C868     C      0.800210000000     0.517350000000     0.292350000000     0.0127953  
C869     C      0.783230000000     0.504090000000     0.270070000000    -0.0731851  
C870     C      0.779190000000     0.482510000000     0.262860000000     0.012913   
C871     C      0.816720000000     0.476340000000     0.323880000000     0.0216421  
C872     C      0.802800000000     0.454630000000     0.336170000000    -0.0561295  
C873     C      0.810850000000     0.445880000000     0.359430000000     0.0124482  
C874     C      0.833020000000     0.458610000000     0.370980000000    -0.072859   
C875     C      0.847340000000     0.479890000000     0.357620000000     0.0123313  
C876     C      0.839240000000     0.488690000000     0.334330000000    -0.0563182  
C877     C      0.960450000000     0.791960000000     0.000390000000    -0.0567599  
C878     C      0.970010000000     0.814200000000     0.989420000000     0.0218499  
C879     C      0.961280000000     0.827380000000     0.000930000000    -0.0564879  
C880     C      0.944150000000     0.818910000000     0.023950000000     0.0126631  
C881     C      0.935280000000     0.797040000000     0.035990000000    -0.0732251  
C882     C      0.943190000000     0.783440000000     0.023400000000     0.0126648  
C883     C      0.990310000000     0.824440000000     0.968460000000     0.0208101  
C884     C      0.008210000000     0.820770000000     0.974980000000    -0.0549027  
C885     C      0.028640000000     0.832850000000     0.958540000000     0.0127295  
C886     C      0.031620000000     0.848850000000     0.935190000000    -0.0731088  
C887     C      0.013350000000     0.851660000000     0.927400000000     0.0141418  
C888     C      0.992910000000     0.839590000000     0.943910000000    -0.0575301  
C889     C      0.809510000000     0.787710000000     0.058370000000    -0.0562241  
C890     C      0.817500000000     0.810620000000     0.052950000000     0.0218679  
C891     C      0.838380000000     0.826530000000     0.066390000000    -0.0558161  
C892     C      0.851360000000     0.819680000000     0.083430000000     0.0129767  
C893     C      0.843940000000     0.796790000000     0.086950000000    -0.072986   
C894     C      0.822690000000     0.780880000000     0.074890000000     0.0131583  
C895     C      0.805160000000     0.817880000000     0.031150000000     0.0219289  
C896     C      0.793990000000     0.805150000000     0.003610000000    -0.0560806  
C897     C      0.784750000000     0.813170000000     0.981000000000     0.013186   
C898     C      0.786780000000     0.834260000000     0.985080000000    -0.0728121  
C899     C      0.797010000000     0.846580000000     0.013180000000     0.0130155  
C900     C      0.805930000000     0.838400000000     0.036100000000    -0.0562368  
C901     C      0.957640000000     0.830280000000     0.243450000000    -0.0564459  
C902     C      0.972850000000     0.822550000000     0.247290000000     0.0218203  
C903     C      0.971840000000     0.806400000000     0.225720000000    -0.0568922  
C904     C      0.955830000000     0.797940000000     0.201150000000     0.0126665  
C905     C      0.940340000000     0.805330000000     0.197560000000    -0.0733864  
C906     C      0.941450000000     0.821680000000     0.218860000000     0.0125622  
C907     C      0.989410000000     0.830690000000     0.274110000000     0.0206526  
C908     C      0.002300000000     0.853650000000     0.281630000000    -0.0548807  
C909     C      0.018340000000     0.861100000000     0.306390000000     0.012298   
C910     C      0.021600000000     0.845690000000     0.324220000000    -0.0728286  
C911     C      0.008500000000     0.822750000000     0.316870000000     0.0137253  
C912     C      0.992650000000     0.815350000000     0.292090000000    -0.0576571  
C913     C      0.818290000000     0.680880000000     0.187660000000    -0.0561124  
C914     C      0.819560000000     0.663120000000     0.173310000000     0.0216652  
C915     C      0.835100000000     0.668000000000     0.148150000000    -0.0559923  
C916     C      0.848930000000     0.690050000000     0.137530000000     0.0124294  
C917     C      0.847680000000     0.707740000000     0.152010000000    -0.0722428  
C918     C      0.832240000000     0.702940000000     0.177200000000     0.0123241  
C919     C      0.804800000000     0.639630000000     0.184550000000     0.0217375  
C920     C      0.799810000000     0.634840000000     0.217520000000    -0.0560557  
C921     C      0.786110000000     0.612750000000     0.228050000000     0.0127402  
C922     C      0.777240000000     0.594930000000     0.205900000000    -0.072914   
C923     C      0.782120000000     0.599670000000     0.172970000000     0.0125369  
C924     C      0.795660000000     0.621750000000     0.162410000000    -0.0561752  
C925     C      0.677650000000     0.511120000000     0.818800000000    -0.0561625  
C926     C      0.658340000000     0.491010000000     0.809530000000     0.0216462  
C927     C      0.659610000000     0.479360000000     0.782530000000    -0.0562358  
C928     C      0.679990000000     0.487150000000     0.766080000000     0.012546   
C929     C      0.699510000000     0.506670000000     0.776410000000    -0.0726511  
C930     C      0.697980000000     0.518840000000     0.802450000000     0.0125789  
C931     C      0.637750000000     0.481360000000     0.829880000000     0.0217529  
C932     C      0.626330000000     0.458440000000     0.837790000000    -0.056179   
C933     C      0.608950000000     0.449810000000     0.860470000000     0.0125871  
C934     C      0.602580000000     0.463890000000     0.875770000000    -0.0727093  
C935     C      0.613180000000     0.486560000000     0.866700000000     0.0127034  
C936     C      0.630610000000     0.495210000000     0.843990000000    -0.0564112  
C937     C      0.481760000000     0.346550000000     0.887690000000    -0.0562764  
C938     C      0.487140000000     0.329670000000     0.892240000000     0.0218347  
C939     C      0.503450000000     0.332960000000     0.915400000000    -0.0565604  
C940     C      0.515090000000     0.353230000000     0.932220000000     0.0130578  
C941     C      0.510680000000     0.370610000000     0.926140000000    -0.0732399  
C942     C      0.493420000000     0.366810000000     0.904450000000     0.0129381  
C943     C      0.477510000000     0.309880000000     0.870490000000     0.0217251  
C944     C      0.454770000000     0.299040000000     0.861040000000    -0.0564354  
C945     C      0.446570000000     0.282160000000     0.837580000000     0.012621   
C946     C      0.461010000000     0.275930000000     0.823010000000    -0.0731101  
C947     C      0.483510000000     0.286190000000     0.833330000000     0.0126544  
C948     C      0.491650000000     0.302940000000     0.856810000000    -0.0563098  
C949     C      0.616140000000     0.448800000000     0.089660000000    -0.0565593  
C950     C      0.638510000000     0.466200000000     0.085090000000     0.0217183  
C951     C      0.644860000000     0.476970000000     0.055010000000    -0.0565391  
C952     C      0.629050000000     0.470890000000     0.030290000000     0.0127062  
C953     C      0.606590000000     0.453750000000     0.034990000000    -0.0728712  
C954     C      0.600360000000     0.442540000000     0.064770000000     0.0127368  
C955     C      0.654940000000     0.473990000000     0.112030000000     0.021667   
C956     C      0.648840000000     0.477950000000     0.142580000000    -0.0564514  
C957     C      0.664720000000     0.487010000000     0.167350000000     0.012727   
C958     C      0.687000000000     0.492100000000     0.162230000000    -0.0729366  
C959     C      0.692960000000     0.487500000000     0.131990000000     0.0127037  
C960     C      0.677110000000     0.478660000000     0.107050000000    -0.0565609  
C961     C      0.333500000000     0.480310000000     0.192110000000    -0.0564062  
C962     C      0.323770000000     0.492810000000     0.202810000000     0.0217054  
C963     C      0.332100000000     0.514570000000     0.190640000000    -0.0562453  
C964     C      0.349040000000     0.523260000000     0.167310000000     0.0125475  
C965     C      0.358090000000     0.510420000000     0.155610000000    -0.0730668  
C966     C      0.350550000000     0.489060000000     0.168790000000     0.0125259  
C967     C      0.303660000000     0.482630000000     0.224160000000     0.0217612  
C968     C      0.285920000000     0.460680000000     0.218370000000    -0.0561101  
C969     C      0.265550000000     0.452190000000     0.234960000000     0.0127131  
C970     C      0.262470000000     0.465460000000     0.257730000000    -0.0728838  
C971     C      0.280630000000     0.486910000000     0.264940000000     0.0127942  
C972     C      0.301020000000     0.495430000000     0.248290000000    -0.0564676  
C973     C      0.485380000000     0.626910000000     0.134150000000    -0.0562399  
C974     C      0.477970000000     0.642220000000     0.139590000000     0.0218724  
C975     C      0.457260000000     0.637590000000     0.126160000000    -0.0557849  
C976     C      0.443880000000     0.617730000000     0.109080000000     0.0129509  
C977     C      0.450720000000     0.601880000000     0.105510000000    -0.0728425  
C978     C      0.471810000000     0.606880000000     0.117580000000     0.0130735  
C979     C      0.490730000000     0.661880000000     0.161380000000     0.021926   
C980     C      0.501670000000     0.660080000000     0.188940000000    -0.0559963  
C981     C      0.511320000000     0.677440000000     0.211530000000     0.0132462  
C982     C      0.509960000000     0.696850000000     0.207400000000    -0.0727683  
C983     C      0.499980000000     0.699170000000     0.179260000000     0.01305    
C984     C      0.490640000000     0.681960000000     0.156370000000    -0.0562495  
C985     C      0.304120000000     0.474580000000     0.895250000000    -0.0566942  
C986     C      0.305870000000     0.491610000000     0.915640000000     0.0216909  
C987     C      0.291580000000     0.500300000000     0.910410000000    -0.0562664  
C988     C      0.275540000000     0.491770000000     0.885610000000     0.0125902  
C989     C      0.273710000000     0.474580000000     0.865430000000    -0.0732425  
C990     C      0.288290000000     0.466220000000     0.870410000000     0.0126177  
C991     C      0.322250000000     0.499710000000     0.942670000000     0.0216581  
C992     C      0.324230000000     0.484210000000     0.962190000000    -0.0566881  
C993     C      0.340000000000     0.491530000000     0.987080000000     0.0125716  
C994     C      0.354290000000     0.514550000000     0.993000000000    -0.0730759  
C995     C      0.352260000000     0.530120000000     0.973670000000     0.0125706  
C996     C      0.336280000000     0.522760000000     0.948810000000    -0.0562572  
C997     C      0.458390000000     0.482100000000     0.044840000000    -0.0558056  
C998     C      0.474420000000     0.493140000000     0.020320000000     0.0215688  
C999     C      0.475980000000     0.512320000000     0.006040000000    -0.0559882  
C1000    C      0.461850000000     0.520220000000     0.015960000000     0.012181   
C1001    C      0.445950000000     0.509220000000     0.040560000000    -0.0720142  
C1002    C      0.444380000000     0.490100000000     0.054920000000     0.0123306  
C1003    C      0.489410000000     0.484650000000     0.009710000000     0.0218249  
C1004    C      0.498100000000     0.475800000000     0.032240000000    -0.056184   
C1005    C      0.511800000000     0.467420000000     0.022250000000     0.0125175  
C1006    C      0.517280000000     0.467850000000     0.989520000000    -0.0728474  
C1007    C      0.508890000000     0.476950000000     0.967010000000     0.0127951  
C1008    C      0.495040000000     0.485180000000     0.976960000000    -0.0561246  
Cd1      Cd     0.402680000000     0.534590000000     0.072020000000     0.508113   
Cd2      Cd     0.557440000000     0.438640000000     0.958460000000     0.507486   
Cd3      Cd     0.890980000000     0.776580000000     0.119780000000     0.50833    
Cd4      Cd     0.736810000000     0.525550000000     0.238330000000     0.507452   
Cd5      Cd     0.226570000000     0.772820000000     0.290560000000     0.507816   
Cd6      Cd     0.069430000000     0.866040000000     0.403840000000     0.509298   
Cd7      Cd     0.556540000000     0.112980000000     0.455570000000     0.508661   
Cd8      Cd     0.402820000000     0.861630000000     0.572700000000     0.506661   
Cd9      Cd     0.893530000000     0.104750000000     0.626210000000     0.506057   
Cd10     Cd     0.737470000000     0.200010000000     0.736480000000     0.508116   
Cd11     Cd     0.224790000000     0.446090000000     0.786980000000     0.508159   
Cd12     Cd     0.071000000000     0.195290000000     0.906620000000     0.507884   
Cd13     Cd     0.861200000000     0.776960000000     0.625540000000     0.50653    
Cd14     Cd     0.765780000000     0.525650000000     0.738740000000     0.509254   
Cd15     Cd     0.185630000000     0.100300000000     0.123150000000     0.507662   
Cd16     Cd     0.438530000000     0.198860000000     0.235440000000     0.506275   
Cd17     Cd     0.852480000000     0.434760000000     0.455340000000     0.508067   
Cd18     Cd     0.105000000000     0.532650000000     0.569960000000     0.506323   
Cd19     Cd     0.098860000000     0.192830000000     0.402690000000     0.507897   
Cd20     Cd     0.194720000000     0.444580000000     0.291370000000     0.507603   
Cd21     Cd     0.436220000000     0.862040000000     0.072320000000     0.509072   
Cd22     Cd     0.530900000000     0.113040000000     0.957910000000     0.507835   
Cd23     Cd     0.772620000000     0.864760000000     0.903580000000     0.506532   
Cd24     Cd     0.521000000000     0.770410000000     0.787360000000     0.50927    
Cd25     Cd     0.105880000000     0.563480000000     0.072990000000     0.509228   
Cd26     Cd     0.854120000000     0.405310000000     0.956660000000     0.506638   
Cd27     Cd     0.188520000000     0.074780000000     0.620300000000     0.507628   
Cd28     Cd     0.439700000000     0.230350000000     0.740950000000     0.509042   
Cd29     Cd     0.195470000000     0.740610000000     0.788140000000     0.507852   
Cd30     Cd     0.098970000000     0.895250000000     0.899200000000     0.50762    
Cd31     Cd     0.527100000000     0.407330000000     0.455790000000     0.508932   
Cd32     Cd     0.431720000000     0.562890000000     0.566910000000     0.507694   
Cd33     Cd     0.860410000000     0.074020000000     0.122680000000     0.509145   
Cd34     Cd     0.764390000000     0.228730000000     0.235460000000     0.506471   
Cd35     Cd     0.776630000000     0.896960000000     0.407310000000     0.508605   
Cd36     Cd     0.524730000000     0.741710000000     0.289030000000     0.506428   
H1       H      0.677950000000     0.811650000000     0.320850000000     0.0497838  
H2       H      0.716490000000     0.836700000000     0.338660000000     0.0469424  
H3       H      0.692610000000     0.865910000000     0.408990000000     0.0475411  
H4       H      0.654090000000     0.841390000000     0.390470000000     0.0499861  
H5       H      0.624470000000     0.803170000000     0.390800000000     0.049847   
H6       H      0.585840000000     0.779380000000     0.372400000000     0.0465636  
H7       H      0.609240000000     0.787030000000     0.274010000000     0.0468966  
H8       H      0.647850000000     0.811480000000     0.292230000000     0.0499368  
H9       H      0.840760000000     0.964540000000     0.266540000000     0.0503478  
H10      H      0.826800000000     0.936490000000     0.309770000000     0.0470027  
H11      H      0.783140000000     0.960420000000     0.342570000000     0.0471212  
H12      H      0.797140000000     0.988320000000     0.299870000000     0.0501797  
H13      H      0.793890000000     0.987660000000     0.240630000000     0.0501717  
H14      H      0.805900000000     0.015210000000     0.197550000000     0.0471108  
H15      H      0.875240000000     0.034260000000     0.214710000000     0.0470696  
H16      H      0.863100000000     0.006590000000     0.258300000000     0.0503064  
H17      H      0.799240000000     0.164320000000     0.135520000000     0.0499419  
H18      H      0.784440000000     0.187950000000     0.153220000000     0.0465306  
H19      H      0.804500000000     0.185220000000     0.250990000000     0.0469903  
H20      H      0.818680000000     0.161010000000     0.233540000000     0.0500325  
H21      H      0.848300000000     0.161230000000     0.203100000000     0.0498456  
H22      H      0.862060000000     0.136570000000     0.186290000000     0.0469603  
H23      H      0.805560000000     0.102220000000     0.121400000000     0.0475683  
H24      H      0.791370000000     0.126440000000     0.138930000000     0.0499926  
H25      H      0.489070000000     0.665710000000     0.472370000000     0.0502128  
H26      H      0.478260000000     0.637890000000     0.514980000000     0.0467236  
H27      H      0.419160000000     0.591710000000     0.460640000000     0.0470324  
H28      H      0.429990000000     0.619740000000     0.417920000000     0.0499913  
H29      H      0.460870000000     0.636920000000     0.377490000000     0.0500643  
H30      H      0.476820000000     0.664290000000     0.334010000000     0.0463127  
H31      H      0.493510000000     0.717790000000     0.402080000000     0.0469568  
H32      H      0.477350000000     0.690280000000     0.445670000000     0.0500152  
H33      H      0.457670000000     0.459270000000     0.472460000000     0.0499546  
H34      H      0.471850000000     0.435010000000     0.455180000000     0.0475327  
H35      H      0.529490000000     0.470930000000     0.517690000000     0.046944   
H36      H      0.515760000000     0.495670000000     0.534180000000     0.0499077  
H37      H      0.486830000000     0.496020000000     0.565320000000     0.0499897  
H38      H      0.472690000000     0.520320000000     0.582480000000     0.047503   
H39      H      0.450030000000     0.520410000000     0.485410000000     0.046611   
H40      H      0.464820000000     0.496730000000     0.467950000000     0.0498473  
H41      H      0.163850000000     0.808650000000     0.884950000000     0.049908   
H42      H      0.178290000000     0.784560000000     0.868120000000     0.0467564  
H43      H      0.156670000000     0.785010000000     0.770520000000     0.0476019  
H44      H      0.142910000000     0.809740000000     0.787050000000     0.0499129  
H45      H      0.171010000000     0.846080000000     0.880630000000     0.049914   
H46      H      0.156290000000     0.869860000000     0.898130000000     0.0473243  
H47      H      0.099490000000     0.834320000000     0.834080000000     0.047094   
H48      H      0.113730000000     0.810060000000     0.817390000000     0.0498853  
H49      H      0.460080000000     0.320010000000     0.630090000000     0.0500971  
H50      H      0.445500000000     0.292160000000     0.672840000000     0.0472255  
H51      H      0.492420000000     0.270870000000     0.645960000000     0.0470313  
H52      H      0.506940000000     0.298840000000     0.602610000000     0.0503301  
H53      H      0.528130000000     0.340710000000     0.593970000000     0.0503217  
H54      H      0.540870000000     0.368390000000     0.550320000000     0.0470899  
H55      H      0.471600000000     0.347050000000     0.527870000000     0.0471813  
H56      H      0.459000000000     0.319470000000     0.570930000000     0.0501336  
H57      H      0.151880000000     0.999260000000     0.806710000000     0.0503942  
H58      H      0.140820000000     0.971710000000     0.849850000000     0.0463865  
H59      H      0.089900000000     0.921120000000     0.788080000000     0.0467077  
H60      H      0.101100000000     0.948810000000     0.744730000000     0.0503586  
H61      H      0.136190000000     0.969870000000     0.710480000000     0.0503585  
H62      H      0.152280000000     0.997620000000     0.667410000000     0.0463161  
H63      H      0.152990000000     0.047600000000     0.730700000000     0.0468738  
H64      H      0.136900000000     0.019730000000     0.773940000000     0.0503215  
H65      H      0.287200000000     0.138210000000     0.723060000000     0.0498344  
H66      H      0.248670000000     0.114790000000     0.704060000000     0.0465765  
H67      H      0.273160000000     0.118230000000     0.607100000000     0.0473568  
H68      H      0.311710000000     0.142310000000     0.625850000000     0.0499573  
H69      H      0.340880000000     0.142450000000     0.657120000000     0.0499139  
H70      H      0.379400000000     0.167350000000     0.675270000000     0.0467736  
H71      H      0.356040000000     0.200360000000     0.739700000000     0.0475882  
H72      H      0.317620000000     0.176000000000     0.720810000000     0.049977   
H73      H      0.799740000000     0.353400000000     0.110390000000     0.0497796  
H74      H      0.816800000000     0.380630000000     0.066610000000     0.0469109  
H75      H      0.810860000000     0.328140000000     0.003580000000     0.0465905  
H76      H      0.794150000000     0.301110000000     0.047270000000     0.0500204  
H77      H      0.761310000000     0.281200000000     0.082890000000     0.0498261  
H78      H      0.751100000000     0.253920000000     0.126500000000     0.0469036  
H79      H      0.802140000000     0.305480000000     0.187040000000     0.0466567  
H80      H      0.812480000000     0.332540000000     0.143520000000     0.0500177  
H81      H      0.122630000000     0.647440000000     0.953580000000     0.0503146  
H82      H      0.107850000000     0.620050000000     0.996950000000     0.04716    
H83      H      0.161290000000     0.605610000000     0.981580000000     0.0469524  
H84      H      0.176090000000     0.633170000000     0.937700000000     0.0504123  
H85      H      0.194080000000     0.675070000000     0.929250000000     0.0503674  
H86      H      0.207460000000     0.703120000000     0.886090000000     0.047114   
H87      H      0.139140000000     0.674790000000     0.851640000000     0.047097   
H88      H      0.125940000000     0.646870000000     0.894350000000     0.0502038  
H89      H      0.983400000000     0.507390000000     0.056010000000     0.0500362  
H90      H      0.021960000000     0.532380000000     0.073960000000     0.0475976  
H91      H      0.045380000000     0.499700000000     0.008990000000     0.0470087  
H92      H      0.006770000000     0.474240000000     0.991750000000     0.0499935  
H93      H      0.977200000000     0.473870000000     0.961020000000     0.0498017  
H94      H      0.938610000000     0.449380000000     0.942820000000     0.0468717  
H95      H      0.914730000000     0.445300000000     0.040330000000     0.0464269  
H96      H      0.953360000000     0.469200000000     0.058760000000     0.0498563  
H97      H      0.455460000000     0.650540000000     0.749700000000     0.049962   
H98      H      0.469720000000     0.686040000000     0.778590000000     0.0472493  
H99      H      0.528850000000     0.716030000000     0.717820000000     0.0470855  
H100     H      0.514510000000     0.680890000000     0.688760000000     0.0500957  
H101     H      0.440400000000     0.638240000000     0.695510000000     0.0500436  
H102     H      0.425240000000     0.608130000000     0.655930000000     0.0466689  
H103     H      0.489720000000     0.611910000000     0.650390000000     0.0472715  
H104     H      0.504830000000     0.641870000000     0.690620000000     0.0499173  
H105     H      0.777890000000     0.958120000000     0.991120000000     0.0502294  
H106     H      0.763460000000     0.923380000000     0.960790000000     0.0470356  
H107     H      0.829630000000     0.946980000000     0.920580000000     0.0467366  
H108     H      0.844000000000     0.982050000000     0.950450000000     0.0497833  
H109     H      0.851490000000     0.991010000000     0.007200000000     0.0500577  
H110     H      0.865400000000     0.020650000000     0.047300000000     0.0468334  
H111     H      0.807610000000     0.028190000000     0.031210000000     0.0470027  
H112     H      0.793810000000     0.998620000000     0.990340000000     0.0499047  
H113     H      0.649600000000     0.810140000000     0.899620000000     0.0500119  
H114     H      0.688150000000     0.824150000000     0.917640000000     0.0470733  
H115     H      0.711980000000     0.844110000000     0.820120000000     0.0465502  
H116     H      0.673380000000     0.829460000000     0.801850000000     0.0499346  
H117     H      0.643580000000     0.837630000000     0.804670000000     0.0500099  
H118     H      0.605070000000     0.823970000000     0.786740000000     0.0475509  
H119     H      0.581240000000     0.767690000000     0.851820000000     0.0469368  
H120     H      0.619780000000     0.780910000000     0.869020000000     0.049918   
H121     H      0.456850000000     0.118200000000     0.835950000000     0.0499194  
H122     H      0.472360000000     0.103480000000     0.875480000000     0.0472573  
H123     H      0.536590000000     0.165080000000     0.869870000000     0.0466701  
H124     H      0.521040000000     0.179890000000     0.830980000000     0.0500565  
H125     H      0.446900000000     0.147260000000     0.838390000000     0.0500718  
H126     H      0.432250000000     0.167830000000     0.809830000000     0.0470492  
H127     H      0.491190000000     0.198060000000     0.748700000000     0.0473707  
H128     H      0.505750000000     0.177050000000     0.777050000000     0.0499391  
H129     H      0.453180000000     0.787220000000     0.244900000000     0.049841   
H130     H      0.467750000000     0.766660000000     0.274220000000     0.0466286  
H131     H      0.533690000000     0.810000000000     0.233430000000     0.047022   
H132     H      0.519060000000     0.830170000000     0.203620000000     0.0502466  
H133     H      0.503050000000     0.854490000000     0.204690000000     0.049861   
H134     H      0.489060000000     0.869960000000     0.163880000000     0.047039   
H135     H      0.431290000000     0.803980000000     0.148250000000     0.0469114  
H136     H      0.445380000000     0.788540000000     0.188290000000     0.0501085  
H137     H      0.502640000000     0.840430000000     0.899090000000     0.0500672  
H138     H      0.516880000000     0.826900000000     0.856390000000     0.0473193  
H139     H      0.468980000000     0.758480000000     0.883000000000     0.0470449  
H140     H      0.454800000000     0.772170000000     0.926330000000     0.0502734  
H141     H      0.434190000000     0.793210000000     0.934870000000     0.0502995  
H142     H      0.421730000000     0.808530000000     0.978220000000     0.0470435  
H143     H      0.491180000000     0.856430000000     0.000860000000     0.0472297  
H144     H      0.503500000000     0.841060000000     0.958120000000     0.0501064  
H145     H      0.505860000000     0.983930000000     0.053480000000     0.0499257  
H146     H      0.491850000000     0.945470000000     0.071190000000     0.0474821  
H147     H      0.433480000000     0.922790000000     0.010080000000     0.0469483  
H148     H      0.447040000000     0.961270000000     0.993190000000     0.0498403  
H149     H      0.475520000000     0.990560000000     0.961330000000     0.049931   
H150     H      0.489430000000     0.029000000000     0.943750000000     0.0475163  
H151     H      0.513460000000     0.052740000000     0.040130000000     0.0465621  
H152     H      0.498890000000     0.014260000000     0.058040000000     0.0498778  
H153     H      0.170090000000     0.508250000000     0.109550000000     0.049986   
H154     H      0.156040000000     0.529660000000     0.081030000000     0.0473585  
H155     H      0.097950000000     0.501650000000     0.143780000000     0.0470863  
H156     H      0.112100000000     0.480680000000     0.172470000000     0.0501865  
H157     H      0.185890000000     0.511340000000     0.163310000000     0.0500635  
H158     H      0.201130000000     0.496260000000     0.202290000000     0.0466173  
H159     H      0.136080000000     0.435760000000     0.209710000000     0.0472853  
H160     H      0.120870000000     0.450740000000     0.170110000000     0.0500208  
H161     H      0.121710000000     0.126600000000     0.581980000000     0.0498969  
H162     H      0.136070000000     0.105730000000     0.611040000000     0.0471725  
H163     H      0.198550000000     0.141190000000     0.557990000000     0.0469313  
H164     H      0.184070000000     0.161630000000     0.528550000000     0.050152   
H165     H      0.171370000000     0.188730000000     0.529440000000     0.0497956  
H166     H      0.156240000000     0.203160000000     0.488750000000     0.0468916  
H167     H      0.094370000000     0.139070000000     0.486650000000     0.0468393  
H168     H      0.109520000000     0.124610000000     0.526600000000     0.0502038  
H169     H      0.110420000000     0.292110000000     0.322200000000     0.0498561  
H170     H      0.096730000000     0.253490000000     0.338660000000     0.0468475  
H171     H      0.153560000000     0.276050000000     0.402850000000     0.0478744  
H172     H      0.167710000000     0.314590000000     0.385630000000     0.0499179  
H173     H      0.160240000000     0.344540000000     0.389800000000     0.0498868  
H174     H      0.175200000000     0.383220000000     0.372650000000     0.0465749  
H175     H      0.153820000000     0.360710000000     0.275030000000     0.047529   
H176     H      0.139540000000     0.322050000000     0.291900000000     0.0500154  
H177     H      0.176300000000     0.651570000000     0.609480000000     0.0496498  
H178     H      0.161360000000     0.615900000000     0.581030000000     0.0465399  
H179     H      0.097120000000     0.591630000000     0.628070000000     0.0471927  
H180     H      0.112160000000     0.626880000000     0.657120000000     0.0502296  
H181     H      0.126590000000     0.666680000000     0.656300000000     0.0497098  
H182     H      0.141240000000     0.696220000000     0.697210000000     0.047016   
H183     H      0.201670000000     0.692220000000     0.704490000000     0.046919   
H184     H      0.186910000000     0.662490000000     0.664520000000     0.0499513  
H185     H      0.167980000000     0.491320000000     0.481290000000     0.0499901  
H186     H      0.152620000000     0.503240000000     0.524820000000     0.0463456  
H187     H      0.134890000000     0.538770000000     0.456290000000     0.0470112  
H188     H      0.150480000000     0.526960000000     0.412670000000     0.0500219  
H189     H      0.138510000000     0.490340000000     0.386810000000     0.0502526  
H190     H      0.148780000000     0.472940000000     0.344240000000     0.0467727  
H191     H      0.208450000000     0.486880000000     0.397370000000     0.0470191  
H192     H      0.198180000000     0.504500000000     0.440060000000     0.049972   
H193     H      0.852340000000     0.338040000000     0.385460000000     0.0494279  
H194     H      0.864560000000     0.372920000000     0.414650000000     0.0454917  
H195     H      0.795330000000     0.355890000000     0.425500000000     0.0470276  
H196     H      0.783060000000     0.321650000000     0.394820000000     0.0497653  
H197     H      0.777790000000     0.285730000000     0.389260000000     0.0494567  
H198     H      0.763790000000     0.256400000000     0.348320000000     0.0455857  
H199     H      0.825400000000     0.294540000000     0.294250000000     0.0473651  
H200     H      0.838960000000     0.324370000000     0.334020000000     0.0497225  
H201     H      0.951210000000     0.448370000000     0.541340000000     0.0496846  
H202     H      0.912580000000     0.434800000000     0.524120000000     0.0468002  
H203     H      0.936510000000     0.487460000000     0.452780000000     0.0475255  
H204     H      0.975080000000     0.501540000000     0.470690000000     0.0497297  
H205     H      0.004300000000     0.492740000000     0.470050000000     0.0499367  
H206     H      0.043080000000     0.507910000000     0.487700000000     0.0467257  
H207     H      0.020650000000     0.493110000000     0.586610000000     0.0468782  
H208     H      0.981890000000     0.478630000000     0.569130000000     0.049939   
H209     H      0.517600000000     0.324240000000     0.339890000000     0.0500889  
H210     H      0.531580000000     0.353610000000     0.380420000000     0.0468731  
H211     H      0.474780000000     0.362610000000     0.363320000000     0.0470541  
H212     H      0.460900000000     0.333290000000     0.322050000000     0.0498608  
H213     H      0.444290000000     0.292670000000     0.322270000000     0.0503005  
H214     H      0.429630000000     0.258060000000     0.291550000000     0.0469861  
H215     H      0.496000000000     0.280890000000     0.252650000000     0.0465942  
H216     H      0.510600000000     0.315820000000     0.282890000000     0.0498716  
H217     H      0.503630000000     0.159620000000     0.147430000000     0.0500341  
H218     H      0.487710000000     0.171020000000     0.190860000000     0.0463731  
H219     H      0.469110000000     0.205750000000     0.122150000000     0.0469789  
H220     H      0.485230000000     0.194440000000     0.078640000000     0.0500008  
H221     H      0.473730000000     0.157780000000     0.053090000000     0.0501705  
H222     H      0.484350000000     0.140620000000     0.010620000000     0.0467814  
H223     H      0.544570000000     0.155950000000     0.063410000000     0.0469743  
H224     H      0.533930000000     0.173320000000     0.106040000000     0.0499442  
H225     H      0.180640000000     0.012520000000     0.021710000000     0.0502774  
H226     H      0.194510000000     0.047480000000     0.051160000000     0.0467288  
H227     H      0.136840000000     0.015660000000     0.114550000000     0.047153   
H228     H      0.123000000000     0.980390000000     0.085120000000     0.0502143  
H229     H      0.172080000000     0.973470000000     0.023390000000     0.0499614  
H230     H      0.157000000000     0.943780000000     0.982710000000     0.0473807  
H231     H      0.092060000000     0.938840000000     0.990350000000     0.0467238  
H232     H      0.107160000000     0.968580000000     0.030550000000     0.0503211  
H233     H      0.097720000000     0.113850000000     0.282980000000     0.0498264  
H234     H      0.085130000000     0.131220000000     0.322870000000     0.0467608  
H235     H      0.149290000000     0.192720000000     0.316050000000     0.0464524  
H236     H      0.161520000000     0.175870000000     0.275470000000     0.0499458  
H237     H      0.107200000000     0.113200000000     0.227700000000     0.0497665  
H238     H      0.121880000000     0.098300000000     0.187050000000     0.0461706  
H239     H      0.187880000000     0.135330000000     0.230280000000     0.0461458  
H240     H      0.173180000000     0.149400000000     0.271570000000     0.049899   
H241     H      0.338870000000     0.163380000000     0.134770000000     0.0499001  
H242     H      0.377600000000     0.178990000000     0.153000000000     0.0467368  
H243     H      0.353810000000     0.154060000000     0.249050000000     0.0469238  
H244     H      0.315060000000     0.138990000000     0.231070000000     0.05008    
H245     H      0.286210000000     0.110270000000     0.198060000000     0.0498065  
H246     H      0.247410000000     0.096290000000     0.181300000000     0.0469988  
H247     H      0.269160000000     0.155440000000     0.122810000000     0.0478694  
H248     H      0.307870000000     0.169750000000     0.140260000000     0.0500284  
H249     H      0.832520000000     0.517750000000     0.870980000000     0.0498011  
H250     H      0.818630000000     0.533300000000     0.830140000000     0.047018   
H251     H      0.761160000000     0.467260000000     0.813640000000     0.0469427  
H252     H      0.775160000000     0.451750000000     0.853690000000     0.0500881  
H253     H      0.782520000000     0.450290000000     0.910420000000     0.0498117  
H254     H      0.796980000000     0.429790000000     0.940120000000     0.0467301  
H255     H      0.863220000000     0.473450000000     0.900440000000     0.0469339  
H256     H      0.848690000000     0.493560000000     0.870220000000     0.0501668  
H257     H      0.764170000000     0.455420000000     0.603620000000     0.0503129  
H258     H      0.751590000000     0.470600000000     0.647040000000     0.0470131  
H259     H      0.820540000000     0.522810000000     0.663500000000     0.0471679  
H260     H      0.832990000000     0.507640000000     0.620630000000     0.0501368  
H261     H      0.829660000000     0.504550000000     0.561480000000     0.0501289  
H262     H      0.844260000000     0.491070000000     0.519160000000     0.0470755  
H263     H      0.801900000000     0.423070000000     0.552780000000     0.0469733  
H264     H      0.787330000000     0.436730000000     0.595620000000     0.0503679  
H265     H      0.774190000000     0.798880000000     0.475750000000     0.049478   
H266     H      0.762730000000     0.822210000000     0.447120000000     0.0454632  
H267     H      0.832440000000     0.873690000000     0.435480000000     0.0468124  
H268     H      0.843990000000     0.851080000000     0.465670000000     0.0497042  
H269     H      0.848250000000     0.819890000000     0.471190000000     0.0494028  
H270     H      0.861840000000     0.804330000000     0.512150000000     0.0453928  
H271     H      0.800680000000     0.781860000000     0.566730000000     0.0473827  
H272     H      0.787570000000     0.798380000000     0.526960000000     0.0497756  
H273     H      0.813720000000     0.833080000000     0.716840000000     0.0500801  
H274     H      0.823850000000     0.816100000000     0.673550000000     0.0466924  
H275     H      0.875190000000     0.816590000000     0.733940000000     0.0468259  
H276     H      0.865180000000     0.833930000000     0.777340000000     0.0498121  
H277     H      0.832440000000     0.820840000000     0.813170000000     0.0499977  
H278     H      0.815830000000     0.831210000000     0.856750000000     0.0465327  
H279     H      0.809590000000     0.877270000000     0.793280000000     0.0468609  
H280     H      0.826550000000     0.867050000000     0.749570000000     0.0498173  
H281     H      0.776950000000     0.624880000000     0.659230000000     0.0499232  
H282     H      0.763420000000     0.586360000000     0.675910000000     0.0469761  
H283     H      0.820710000000     0.609200000000     0.739300000000     0.0475307  
H284     H      0.834670000000     0.647700000000     0.721870000000     0.0499413  
H285     H      0.826940000000     0.677690000000     0.725850000000     0.0499401  
H286     H      0.841640000000     0.716230000000     0.708100000000     0.0464762  
H287     H      0.820210000000     0.692940000000     0.610760000000     0.047076   
H288     H      0.806140000000     0.654460000000     0.628240000000     0.0500287  
H289     H      0.950280000000     0.157780000000     0.023200000000     0.0501012  
H290     H      0.914670000000     0.136260000000     0.051520000000     0.0468945  
H291     H      0.945290000000     0.110630000000     0.116550000000     0.0472743  
H292     H      0.981200000000     0.132550000000     0.088380000000     0.0498966  
H293     H      0.989340000000     0.188570000000     0.025640000000     0.0499243  
H294     H      0.020000000000     0.203640000000     0.986300000000     0.0472722  
H295     H      0.024970000000     0.144130000000     0.996230000000     0.0470178  
H296     H      0.994210000000     0.128960000000     0.034980000000     0.0487891  
H297     H      0.183670000000     0.179110000000     0.005620000000     0.0497357  
H298     H      0.197180000000     0.162660000000     0.045640000000     0.0466113  
H299     H      0.134680000000     0.099500000000     0.037340000000     0.0472038  
H300     H      0.121100000000     0.115920000000     0.998120000000     0.0502973  
H301     H      0.125660000000     0.131100000000     0.944220000000     0.0499705  
H302     H      0.105090000000     0.145590000000     0.914630000000     0.0473269  
H303     H      0.134950000000     0.204590000000     0.975150000000     0.0470577  
H304     H      0.155050000000     0.189910000000     0.005110000000     0.0500471  
H305     H      0.338270000000     0.475620000000     0.657400000000     0.0503034  
H306     H      0.373710000000     0.496030000000     0.628250000000     0.0469108  
H307     H      0.347820000000     0.531890000000     0.575220000000     0.0472152  
H308     H      0.312090000000     0.511110000000     0.604080000000     0.0497963  
H309     H      0.302300000000     0.513310000000     0.659930000000     0.0501589  
H310     H      0.272910000000     0.499220000000     0.700680000000     0.046664   
H311     H      0.268380000000     0.434630000000     0.697470000000     0.0470539  
H312     H      0.297730000000     0.448710000000     0.656060000000     0.0498863  
H313     H      0.178870000000     0.513380000000     0.728490000000     0.0498146  
H314     H      0.201410000000     0.501640000000     0.758610000000     0.0471378  
H315     H      0.150170000000     0.432290000000     0.744690000000     0.0457391  
H316     H      0.126920000000     0.443930000000     0.716010000000     0.0495066  
H317     H      0.126770000000     0.458150000000     0.665210000000     0.0498384  
H318     H      0.110240000000     0.471700000000     0.626080000000     0.0473708  
H319     H      0.131730000000     0.531390000000     0.683160000000     0.0456911  
H320     H      0.147320000000     0.517350000000     0.723430000000     0.0495446  
H321     H      0.172520000000     0.324710000000     0.806200000000     0.0498981  
H322     H      0.196330000000     0.363130000000     0.787510000000     0.0475893  
H323     H      0.162980000000     0.385270000000     0.853440000000     0.0468241  
H324     H      0.138560000000     0.346750000000     0.871310000000     0.0499012  
H325     H      0.138820000000     0.317850000000     0.901820000000     0.0499652  
H326     H      0.114870000000     0.279370000000     0.920240000000     0.0474309  
H327     H      0.111800000000     0.255440000000     0.823090000000     0.0465369  
H328     H      0.135020000000     0.293930000000     0.804370000000     0.0499107  
H329     H      0.661300000000     0.191570000000     0.863940000000     0.0501727  
H330     H      0.690840000000     0.206350000000     0.823400000000     0.0466327  
H331     H      0.691780000000     0.144390000000     0.824940000000     0.0469515  
H332     H      0.662300000000     0.129640000000     0.866180000000     0.0498521  
H333     H      0.622280000000     0.117430000000     0.865050000000     0.0502518  
H334     H      0.587040000000     0.103160000000     0.894360000000     0.0469919  
H335     H      0.615230000000     0.165010000000     0.948380000000     0.047165   
H336     H      0.650790000000     0.179190000000     0.919380000000     0.049761   
H337     H      0.834920000000     0.296340000000     0.808630000000     0.0494516  
H338     H      0.812020000000     0.261420000000     0.779340000000     0.0454916  
H339     H      0.761040000000     0.279210000000     0.764050000000     0.0471859  
H340     H      0.783200000000     0.313500000000     0.794780000000     0.0498163  
H341     H      0.814670000000     0.349260000000     0.801170000000     0.0494712  
H342     H      0.829370000000     0.378450000000     0.842350000000     0.0455268  
H343     H      0.849790000000     0.339720000000     0.899670000000     0.0473583  
H344     H      0.834120000000     0.310050000000     0.859600000000     0.0497562  
H345     H      0.949620000000     0.124070000000     0.470060000000     0.0494648  
H346     H      0.920160000000     0.109370000000     0.511040000000     0.045647   
H347     H      0.962000000000     0.165830000000     0.572480000000     0.0471743  
H348     H      0.991880000000     0.179940000000     0.532580000000     0.049489   
H349     H      0.006410000000     0.196160000000     0.482760000000     0.0495097  
H350     H      0.040940000000     0.207750000000     0.452530000000     0.0456724  
H351     H      0.018310000000     0.138590000000     0.430040000000     0.0470925  
H352     H      0.984380000000     0.126760000000     0.461720000000     0.0498678  
H353     H      0.805440000000     0.008220000000     0.541740000000     0.0502505  
H354     H      0.825410000000     0.043510000000     0.570950000000     0.0470635  
H355     H      0.869150000000     0.022610000000     0.613220000000     0.0464104  
H356     H      0.848720000000     0.986920000000     0.584580000000     0.0496619  
H357     H      0.847690000000     0.977140000000     0.528670000000     0.0500261  
H358     H      0.832800000000     0.947710000000     0.488250000000     0.0469233  
H359     H      0.766390000000     0.938520000000     0.501270000000     0.0469866  
H360     H      0.781280000000     0.967840000000     0.542570000000     0.0497346  
H361     H      0.968840000000     0.148410000000     0.809850000000     0.0504746  
H362     H      0.996520000000     0.166210000000     0.852630000000     0.0453672  
H363     H      0.041940000000     0.150840000000     0.802150000000     0.0471781  
H364     H      0.014000000000     0.132770000000     0.759250000000     0.0500818  
H365     H      0.997830000000     0.145430000000     0.716590000000     0.0496963  
H366     H      0.970680000000     0.133270000000     0.672600000000     0.0463155  
H367     H      0.916120000000     0.099680000000     0.740810000000     0.0470419  
H368     H      0.943370000000     0.111690000000     0.784880000000     0.0498787  
H369     H      0.824090000000     0.157300000000     0.624660000000     0.0499198  
H370     H      0.848680000000     0.143310000000     0.607980000000     0.0468074  
H371     H      0.855210000000     0.128590000000     0.707240000000     0.0466029  
H372     H      0.831280000000     0.143260000000     0.724100000000     0.0498494  
H373     H      0.792930000000     0.133950000000     0.722470000000     0.0499708  
H374     H      0.768210000000     0.147630000000     0.739680000000     0.0476927  
H375     H      0.798260000000     0.200510000000     0.668690000000     0.0468382  
H376     H      0.823540000000     0.187330000000     0.652180000000     0.0497143  
H377     H      0.346310000000     0.819180000000     0.727220000000     0.0494899  
H378     H      0.375700000000     0.834760000000     0.686150000000     0.0457203  
H379     H      0.337020000000     0.856610000000     0.631360000000     0.0473708  
H380     H      0.307190000000     0.840170000000     0.671350000000     0.0498652  
H381     H      0.293530000000     0.839860000000     0.723040000000     0.0495185  
H382     H      0.258250000000     0.816340000000     0.751530000000     0.0456011  
H383     H      0.275520000000     0.764770000000     0.762080000000     0.0471593  
H384     H      0.310200000000     0.787650000000     0.732200000000     0.0498401  
H385     H      0.447380000000     0.789150000000     0.614330000000     0.0498765  
H386     H      0.427110000000     0.804270000000     0.585520000000     0.0466619  
H387     H      0.471470000000     0.869550000000     0.626830000000     0.0469994  
H388     H      0.491350000000     0.854360000000     0.656140000000     0.0502734  
H389     H      0.515200000000     0.837750000000     0.654820000000     0.0498585  
H390     H      0.530200000000     0.823260000000     0.695600000000     0.0470492  
H391     H      0.463410000000     0.766470000000     0.710860000000     0.0469032  
H392     H      0.448440000000     0.781060000000     0.670860000000     0.0500896  
H393     H      0.645970000000     0.182570000000     0.276650000000     0.0497243  
H394     H      0.681670000000     0.202870000000     0.247690000000     0.0468335  
H395     H      0.704040000000     0.161280000000     0.292870000000     0.0470408  
H396     H      0.668680000000     0.141410000000     0.322320000000     0.0502889  
H397     H      0.628030000000     0.116690000000     0.321500000000     0.0497932  
H398     H      0.598690000000     0.102220000000     0.362950000000     0.0470146  
H399     H      0.607100000000     0.168190000000     0.373410000000     0.0468151  
H400     H      0.636520000000     0.182650000000     0.332760000000     0.0501015  
H401     H      0.477590000000     0.182720000000     0.391120000000     0.0494796  
H402     H      0.462480000000     0.196680000000     0.350010000000     0.045754   
H403     H      0.443780000000     0.137970000000     0.291930000000     0.0474386  
H404     H      0.459800000000     0.124510000000     0.332000000000     0.0498173  
H405     H      0.458820000000     0.109860000000     0.383030000000     0.0494985  
H406     H      0.482020000000     0.098510000000     0.412430000000     0.0456613  
H407     H      0.532120000000     0.168000000000     0.428410000000     0.0469765  
H408     H      0.509620000000     0.179490000000     0.397610000000     0.049847   
H409     H      0.669090000000     0.200600000000     0.600000000000     0.0504579  
H410     H      0.697550000000     0.213360000000     0.642750000000     0.0470823  
H411     H      0.674430000000     0.144400000000     0.667810000000     0.0470055  
H412     H      0.646150000000     0.131790000000     0.625480000000     0.050212   
H413     H      0.646670000000     0.132430000000     0.565660000000     0.0502073  
H414     H      0.618450000000     0.118040000000     0.523210000000     0.0471342  
H415     H      0.597960000000     0.165410000000     0.550280000000     0.0469336  
H416     H      0.626390000000     0.179830000000     0.593200000000     0.0504535  
H417     H      0.463640000000     0.961540000000     0.472010000000     0.049903   
H418     H      0.440210000000     0.922950000000     0.490140000000     0.0465558  
H419     H      0.448200000000     0.945750000000     0.588830000000     0.0468224  
H420     H      0.472290000000     0.984360000000     0.570840000000     0.0499632  
H421     H      0.471820000000     0.014250000000     0.542570000000     0.0498119  
H422     H      0.496500000000     0.052750000000     0.524750000000     0.0469187  
H423     H      0.526130000000     0.029650000000     0.453840000000     0.0476871  
H424     H      0.501990000000     0.991230000000     0.472320000000     0.0500086  
H425     H      0.978570000000     0.849000000000     0.578470000000     0.0497663  
H426     H      0.943520000000     0.834250000000     0.608890000000     0.0467634  
H427     H      0.920690000000     0.768370000000     0.569290000000     0.0469156  
H428     H      0.955420000000     0.783170000000     0.538430000000     0.0501376  
H429     H      0.996270000000     0.799900000000     0.538360000000     0.0484368  
H430     H      0.025430000000     0.813880000000     0.496650000000     0.0475087  
H431     H      0.015880000000     0.870200000000     0.480370000000     0.0468892  
H432     H      0.986670000000     0.856120000000     0.521350000000     0.0500066  
H433     H      0.153460000000     0.956650000000     0.501700000000     0.0501671  
H434     H      0.132120000000     0.921060000000     0.473680000000     0.0470244  
H435     H      0.104970000000     0.950510000000     0.409210000000     0.047414   
H436     H      0.126770000000     0.986450000000     0.437050000000     0.0500438  
H437     H      0.183780000000     0.995620000000     0.499270000000     0.0499163  
H438     H      0.198510000000     0.025930000000     0.538930000000     0.04729    
H439     H      0.138170000000     0.029920000000     0.529310000000     0.0467264  
H440     H      0.123340000000     0.999470000000     0.490300000000     0.0501431  
H441     H      0.302400000000     0.782680000000     0.161490000000     0.0500407  
H442     H      0.271760000000     0.767240000000     0.200430000000     0.0466128  
H443     H      0.277780000000     0.832240000000     0.210370000000     0.0471929  
H444     H      0.308300000000     0.847660000000     0.170800000000     0.0499451  
H445     H      0.315500000000     0.799110000000     0.108150000000     0.0499581  
H446     H      0.351240000000     0.813050000000     0.079610000000     0.047308   
H447     H      0.382530000000     0.869960000000     0.144000000000     0.0470367  
H448     H      0.347120000000     0.855910000000     0.172710000000     0.0501198  
H449     H      0.176810000000     0.645090000000     0.193540000000     0.0502424  
H450     H      0.161950000000     0.615350000000     0.153460000000     0.0466944  
H451     H      0.096840000000     0.610120000000     0.160000000000     0.0471249  
H452     H      0.111740000000     0.639880000000     0.200660000000     0.0500236  
H453     H      0.138760000000     0.680500000000     0.198910000000     0.050299   
H454     H      0.159370000000     0.715580000000     0.228610000000     0.0468789  
H455     H      0.196020000000     0.689620000000     0.279540000000     0.0472894  
H456     H      0.175100000000     0.654300000000     0.250100000000     0.0499767  
H457     H      0.298230000000     0.800200000000     0.481850000000     0.0501597  
H458     H      0.325210000000     0.815620000000     0.526040000000     0.0463794  
H459     H      0.379470000000     0.830740000000     0.459660000000     0.0470526  
H460     H      0.352370000000     0.815140000000     0.415400000000     0.0500506  
H461     H      0.328770000000     0.827740000000     0.387580000000     0.050248   
H462     H      0.301540000000     0.817550000000     0.344100000000     0.0466567  
H463     H      0.253490000000     0.759140000000     0.397740000000     0.0470609  
H464     H      0.280920000000     0.769350000000     0.441370000000     0.050005   
H465     H      0.160080000000     0.805240000000     0.390150000000     0.0499216  
H466     H      0.184030000000     0.790790000000     0.372390000000     0.0466181  
H467     H      0.183380000000     0.813220000000     0.275420000000     0.0474431  
H468     H      0.158800000000     0.827030000000     0.292900000000     0.0500139  
H469     H      0.158310000000     0.855700000000     0.324260000000     0.0499211  
H470     H      0.133280000000     0.869070000000     0.341160000000     0.0469132  
H471     H      0.097770000000     0.811530000000     0.403580000000     0.0475783  
H472     H      0.122310000000     0.797720000000     0.385900000000     0.0500291  
H473     H      0.656780000000     0.520670000000     0.358630000000     0.0499648  
H474     H      0.687300000000     0.535320000000     0.319090000000     0.0472343  
H475     H      0.691650000000     0.475490000000     0.329490000000     0.0466291  
H476     H      0.661000000000     0.460730000000     0.368400000000     0.0501434  
H477     H      0.617680000000     0.490340000000     0.356450000000     0.0501073  
H478     H      0.582030000000     0.469240000000     0.384790000000     0.0470088  
H479     H      0.611950000000     0.442830000000     0.449740000000     0.0473676  
H480     H      0.647930000000     0.464360000000     0.421570000000     0.0499778  
H481     H      0.824050000000     0.518960000000     0.326830000000     0.0501999  
H482     H      0.803790000000     0.534080000000     0.298370000000     0.0469319  
H483     H      0.766310000000     0.471940000000     0.245650000000     0.047076   
H484     H      0.786990000000     0.456930000000     0.273720000000     0.0497939  
H485     H      0.785290000000     0.444750000000     0.329020000000     0.0500964  
H486     H      0.799400000000     0.429390000000     0.369160000000     0.0467103  
H487     H      0.864540000000     0.490050000000     0.365940000000     0.046985   
H488     H      0.850470000000     0.505370000000     0.325050000000     0.049736   
H489     H      0.968420000000     0.844650000000     0.993320000000     0.0500416  
H490     H      0.938360000000     0.829800000000     0.033090000000     0.0464963  
H491     H      0.936620000000     0.766480000000     0.032130000000     0.0468831  
H492     H      0.966650000000     0.781320000000     0.991720000000     0.0497671  
H493     H      0.006880000000     0.809410000000     0.993960000000     0.0503455  
H494     H      0.042380000000     0.830240000000     0.965020000000     0.0469808  
H495     H      0.015080000000     0.863760000000     0.909380000000     0.047255   
H496     H      0.979310000000     0.842550000000     0.938030000000     0.0498775  
H497     H      0.845320000000     0.844300000000     0.062440000000     0.0497873  
H498     H      0.867730000000     0.832320000000     0.092340000000     0.0471011  
H499     H      0.816440000000     0.763100000000     0.077580000000     0.0456108  
H500     H      0.793290000000     0.774970000000     0.049150000000     0.0494523  
H501     H      0.793290000000     0.789470000000     0.998560000000     0.0498375  
H502     H      0.777050000000     0.803350000000     0.959480000000     0.0474178  
H503     H      0.798630000000     0.862820000000     0.017100000000     0.0455099  
H504     H      0.813900000000     0.848440000000     0.057330000000     0.0494443  
H505     H      0.983530000000     0.800340000000     0.227780000000     0.0500513  
H506     H      0.955530000000     0.785450000000     0.185050000000     0.0469049  
H507     H      0.929780000000     0.827740000000     0.216630000000     0.0469196  
H508     H      0.957950000000     0.842620000000     0.259860000000     0.0502414  
H509     H      0.000250000000     0.865860000000     0.268020000000     0.050461   
H510     H      0.028140000000     0.878890000000     0.311590000000     0.0472419  
H511     H      0.010500000000     0.810420000000     0.330230000000     0.0470872  
H512     H      0.982760000000     0.797530000000     0.287170000000     0.0502373  
H513     H      0.836830000000     0.654830000000     0.136890000000     0.0499171  
H514     H      0.860750000000     0.693230000000     0.118170000000     0.0475327  
H515     H      0.830800000000     0.716210000000     0.188730000000     0.0468287  
H516     H      0.806300000000     0.677730000000     0.206730000000     0.0498365  
H517     H      0.806800000000     0.648130000000     0.235320000000     0.049872   
H518     H      0.782730000000     0.609610000000     0.253610000000     0.0472688  
H519     H      0.775420000000     0.586300000000     0.155280000000     0.0465123  
H520     H      0.798790000000     0.624810000000     0.136800000000     0.0497718  
H521     H      0.644950000000     0.463950000000     0.774570000000     0.0499553  
H522     H      0.680620000000     0.477460000000     0.746000000000     0.0472402  
H523     H      0.712700000000     0.534000000000     0.810960000000     0.0470805  
H524     H      0.677380000000     0.520370000000     0.839700000000     0.0501511  
H525     H      0.631540000000     0.447340000000     0.827670000000     0.0500448  
H526     H      0.601060000000     0.432240000000     0.866850000000     0.0466531  
H527     H      0.608550000000     0.497790000000     0.877920000000     0.0472098  
H528     H      0.638880000000     0.512880000000     0.838070000000     0.0499366  
H529     H      0.507720000000     0.320120000000     0.919780000000     0.04993    
H530     H      0.528200000000     0.355600000000     0.948940000000     0.0471729  
H531     H      0.489570000000     0.379850000000     0.899310000000     0.0468129  
H532     H      0.469430000000     0.344630000000     0.869860000000     0.0503344  
H533     H      0.443420000000     0.303900000000     0.871360000000     0.0499003  
H534     H      0.429120000000     0.274480000000     0.830210000000     0.0470757  
H535     H      0.495050000000     0.281710000000     0.822650000000     0.0466915  
H536     H      0.509320000000     0.311130000000     0.863190000000     0.0502345  
H537     H      0.661900000000     0.490590000000     0.050900000000     0.0503158  
H538     H      0.634390000000     0.479810000000     0.007570000000     0.0463707  
H539     H      0.583190000000     0.429240000000     0.069070000000     0.0469567  
H540     H      0.610840000000     0.440120000000     0.112550000000     0.0502594  
H541     H      0.631950000000     0.474730000000     0.147030000000     0.0502631  
H542     H      0.659590000000     0.490300000000     0.190420000000     0.0463313  
H543     H      0.709990000000     0.491220000000     0.127350000000     0.0469066  
H544     H      0.682220000000     0.475620000000     0.083800000000     0.0502641  
H545     H      0.324810000000     0.524550000000     0.198000000000     0.0501622  
H546     H      0.354540000000     0.539820000000     0.157720000000     0.0466593  
H547     H      0.357280000000     0.478810000000     0.160340000000     0.0470213  
H548     H      0.327600000000     0.463580000000     0.201280000000     0.049889   
H549     H      0.287290000000     0.450450000000     0.199760000000     0.0503004  
H550     H      0.251910000000     0.435560000000     0.228930000000     0.046947   
H551     H      0.278820000000     0.497490000000     0.282500000000     0.047187   
H552     H      0.314500000000     0.512280000000     0.253630000000     0.0498426  
H553     H      0.450760000000     0.648730000000     0.130120000000     0.0498332  
H554     H      0.427640000000     0.614270000000     0.100150000000     0.0470733  
H555     H      0.477620000000     0.595060000000     0.114850000000     0.0456653  
H556     H      0.501450000000     0.630110000000     0.143360000000     0.0494695  
H557     H      0.501850000000     0.644830000000     0.194020000000     0.0497998  
H558     H      0.518790000000     0.675110000000     0.233080000000     0.047379   
H559     H      0.498870000000     0.714060000000     0.175310000000     0.0456182  
H560     H      0.482870000000     0.684210000000     0.135130000000     0.0495138  
H561     H      0.292480000000     0.513340000000     0.925900000000     0.0505089  
H562     H      0.264580000000     0.498590000000     0.882290000000     0.046954   
H563     H      0.287410000000     0.453050000000     0.855230000000     0.0469976  
H564     H      0.315090000000     0.467750000000     0.898410000000     0.050281   
H565     H      0.313470000000     0.466350000000     0.958320000000     0.0503062  
H566     H      0.341050000000     0.479080000000     0.001600000000     0.0470176  
H567     H      0.362990000000     0.547970000000     0.977730000000     0.0469576  
H568     H      0.335190000000     0.535070000000     0.934010000000     0.0505034  
H569     H      0.488340000000     0.521450000000     0.987450000000     0.0498002  
H570     H      0.463550000000     0.535070000000     0.004530000000     0.0468582  
H571     H      0.432200000000     0.481190000000     0.073820000000     0.0476532  
H572     H      0.456430000000     0.467060000000     0.056020000000     0.0498911  
H573     H      0.494480000000     0.475490000000     0.057710000000     0.0498329  
H574     H      0.518120000000     0.460630000000     0.040220000000     0.0465473  
H575     H      0.512730000000     0.477400000000     0.941590000000     0.0473089  
H576     H      0.488410000000     0.491570000000     0.958870000000     0.0499252  
O1       O      0.385760000000     0.542300000000     0.024080000000    -0.232266   
O2       O      0.383410000000     0.508340000000     0.117550000000    -0.230612   
O3       O      0.418000000000     0.575510000000     0.075530000000    -0.230618   
O4       O      0.430510000000     0.533390000000     0.036390000000    -0.238001   
O5       O      0.418490000000     0.509770000000     0.075710000000    -0.230341   
O6       O      0.437410000000     0.562850000000     0.098310000000    -0.238976   
O7       O      0.371250000000     0.507910000000     0.038690000000    -0.2414     
O8       O      0.378420000000     0.536470000000     0.113390000000    -0.240175   
O9       O      0.570210000000     0.431020000000     0.010370000000    -0.230776   
O10      O      0.538400000000     0.460440000000     0.950300000000    -0.2324     
O11      O      0.541710000000     0.397600000000     0.958230000000    -0.232839   
O12      O      0.578510000000     0.435530000000     0.913310000000    -0.238943   
O13      O      0.580250000000     0.467380000000     0.917530000000    -0.230206   
O14      O      0.523620000000     0.409790000000     0.930880000000    -0.239545   
O15      O      0.594130000000     0.460680000000     0.984760000000    -0.239127   
O16      O      0.536470000000     0.447470000000     0.998020000000    -0.239197   
O17      O      0.876430000000     0.802640000000     0.116700000000    -0.230939   
O18      O      0.874610000000     0.735710000000     0.116000000000    -0.230697   
O19      O      0.908010000000     0.800760000000     0.168250000000    -0.232472   
O20      O      0.914890000000     0.802680000000     0.077980000000    -0.240024   
O21      O      0.909980000000     0.769510000000     0.074160000000    -0.23045    
O22      O      0.923270000000     0.782190000000     0.151350000000    -0.241661   
O23      O      0.856370000000     0.770480000000     0.093880000000    -0.239082   
O24      O      0.863490000000     0.747550000000     0.155990000000    -0.238319   
O25      O      0.752250000000     0.500080000000     0.238150000000    -0.232941   
O26      O      0.714980000000     0.532320000000     0.279640000000    -0.230235   
O27      O      0.723370000000     0.505120000000     0.186380000000    -0.230625   
O28      O      0.757630000000     0.555100000000     0.198170000000    -0.239079   
O29      O      0.756530000000     0.566660000000     0.245880000000    -0.23211    
O30      O      0.700010000000     0.511080000000     0.212730000000    -0.239229   
O31      O      0.770350000000     0.530280000000     0.266090000000    -0.239735   
O32      O      0.714990000000     0.501290000000     0.283190000000    -0.238863   
O33      O      0.210180000000     0.731700000000     0.289480000000    -0.232159   
O34      O      0.249330000000     0.801580000000     0.249600000000    -0.230102   
O35      O      0.239820000000     0.763970000000     0.341070000000    -0.230829   
O36      O      0.204240000000     0.779890000000     0.330040000000    -0.239762   
O37      O      0.208030000000     0.795130000000     0.283540000000    -0.232331   
O38      O      0.262230000000     0.795780000000     0.318910000000    -0.239621   
O39      O      0.193260000000     0.744780000000     0.261210000000    -0.239395   
O40      O      0.248630000000     0.770190000000     0.246380000000    -0.239276   
O41      O      0.088470000000     0.907490000000     0.402080000000    -0.23073    
O42      O      0.084390000000     0.840400000000     0.406720000000    -0.23107    
O43      O      0.051690000000     0.873670000000     0.357000000000    -0.231324   
O44      O      0.042570000000     0.867280000000     0.440850000000    -0.24059    
O45      O      0.049940000000     0.841120000000     0.450490000000    -0.230443   
O46      O      0.039640000000     0.839110000000     0.368600000000    -0.240698   
O47      O      0.099760000000     0.893040000000     0.438190000000    -0.240016   
O48      O      0.099070000000     0.866340000000     0.370680000000    -0.239291   
O49      O      0.574310000000     0.137390000000     0.503650000000    -0.231972   
O50      O      0.574550000000     0.106040000000     0.408480000000    -0.230558   
O51      O      0.541330000000     0.138590000000     0.452930000000    -0.230967   
O52      O      0.528890000000     0.084020000000     0.491630000000    -0.238187   
O53      O      0.540440000000     0.072170000000     0.452110000000    -0.230264   
O54      O      0.522040000000     0.106620000000     0.429290000000    -0.239184   
O55      O      0.588030000000     0.117190000000     0.487700000000    -0.241347   
O56      O      0.581640000000     0.139800000000     0.415450000000    -0.240481   
O57      O      0.365020000000     0.840150000000     0.549270000000    -0.236857   
O58      O      0.422360000000     0.902770000000     0.580820000000    -0.235614   
O59      O      0.415120000000     0.833760000000     0.575930000000    -0.235245   
O60      O      0.374720000000     0.865130000000     0.605150000000    -0.230582   
O61      O      0.388410000000     0.846280000000     0.626550000000    -0.237783   
O62      O      0.437530000000     0.866190000000     0.596330000000    -0.238338   
O63      O      0.391820000000     0.843390000000     0.518970000000    -0.231155   
O64      O      0.422680000000     0.891560000000     0.532660000000    -0.238525   
O65      O      0.881430000000     0.064410000000     0.622500000000    -0.236411   
O66      O      0.923010000000     0.137160000000     0.596270000000    -0.230845   
O67      O      0.903770000000     0.098800000000     0.681250000000    -0.231053   
O68      O      0.873280000000     0.114770000000     0.665550000000    -0.237441   
O69      O      0.874500000000     0.126570000000     0.617330000000    -0.236002   
O70      O      0.931200000000     0.119010000000     0.649170000000    -0.236279   
O71      O      0.859010000000     0.074180000000     0.602150000000    -0.238543   
O72      O      0.907670000000     0.105460000000     0.571490000000    -0.237107   
O73      O      0.752320000000     0.240810000000     0.739490000000    -0.230451   
O74      O      0.753720000000     0.175580000000     0.740580000000    -0.230742   
O75      O      0.720400000000     0.207550000000     0.688660000000    -0.232258   
O76      O      0.713970000000     0.202420000000     0.778560000000    -0.240282   
O77      O      0.718040000000     0.173690000000     0.781950000000    -0.230579   
O78      O      0.705580000000     0.173240000000     0.703850000000    -0.241288   
O79      O      0.772100000000     0.228660000000     0.762510000000    -0.238857   
O80      O      0.765270000000     0.198790000000     0.700760000000    -0.238133   
O81      O      0.210260000000     0.472170000000     0.783370000000    -0.23073    
O82      O      0.209090000000     0.405310000000     0.783830000000    -0.230335   
O83      O      0.241910000000     0.470540000000     0.835240000000    -0.232346   
O84      O      0.249160000000     0.472150000000     0.745450000000    -0.24014    
O85      O      0.243040000000     0.438580000000     0.740800000000    -0.230413   
O86      O      0.256650000000     0.451270000000     0.819350000000    -0.241656   
O87      O      0.190090000000     0.439800000000     0.761180000000    -0.238719   
O88      O      0.196670000000     0.416950000000     0.822480000000    -0.23799    
O89      O      0.088660000000     0.171780000000     0.907220000000    -0.231858   
O90      O      0.048460000000     0.201390000000     0.947520000000    -0.229993   
O91      O      0.056900000000     0.171750000000     0.857240000000    -0.23033    
O92      O      0.093150000000     0.224500000000     0.866480000000    -0.239738   
O93      O      0.089540000000     0.236370000000     0.912740000000    -0.23228    
O94      O      0.035520000000     0.182730000000     0.878120000000    -0.239114   
O95      O      0.103390000000     0.200690000000     0.938240000000    -0.23939    
O96      O      0.048340000000     0.170270000000     0.950280000000    -0.239487   
O97      O      0.890700000000     0.772230000000     0.600380000000    -0.238257   
O98      O      0.862750000000     0.793040000000     0.572120000000    -0.237776   
O99      O      0.870670000000     0.798520000000     0.676930000000    -0.231079   
O100     O      0.852950000000     0.747490000000     0.665690000000    -0.239414   
O101     O      0.838740000000     0.735810000000     0.618680000000    -0.235518   
O102     O      0.842340000000     0.795130000000     0.650330000000    -0.237221   
O103     O      0.901860000000     0.804720000000     0.621070000000    -0.233661   
O104     O      0.829620000000     0.772930000000     0.592360000000    -0.22959    
O105     O      0.757380000000     0.499900000000     0.692020000000    -0.23131    
O106     O      0.791200000000     0.530860000000     0.784590000000    -0.23065    
O107     O      0.724020000000     0.503550000000     0.737920000000    -0.230628   
O108     O      0.765760000000     0.555010000000     0.705720000000    -0.239388   
O109     O      0.791840000000     0.566510000000     0.741710000000    -0.230956   
O110     O      0.739640000000     0.529160000000     0.774320000000    -0.240005   
O111     O      0.792250000000     0.523030000000     0.702610000000    -0.240936   
O112     O      0.764210000000     0.497270000000     0.775160000000    -0.240826   
O113     O      0.164110000000     0.058640000000     0.124440000000    -0.232352   
O114     O      0.226490000000     0.126540000000     0.120200000000    -0.229258   
O115     O      0.153760000000     0.093500000000     0.159270000000    -0.233583   
O116     O      0.160750000000     0.100750000000     0.081690000000    -0.239584   
O117     O      0.193220000000     0.130730000000     0.084020000000    -0.231936   
O118     O      0.186620000000     0.120100000000     0.172770000000    -0.239929   
O119     O      0.188720000000     0.074370000000     0.086710000000    -0.239888   
O120     O      0.215430000000     0.098770000000     0.153160000000    -0.236227   
O121     O      0.456540000000     0.206010000000     0.181390000000    -0.231314   
O122     O      0.397200000000     0.174910000000     0.241940000000    -0.235704   
O123     O      0.466450000000     0.239360000000     0.240440000000    -0.235883   
O124     O      0.452350000000     0.198990000000     0.290070000000    -0.237155   
O125     O      0.434950000000     0.166840000000     0.266530000000    -0.229866   
O126     O      0.433640000000     0.228280000000     0.260360000000    -0.238524   
O127     O      0.461750000000     0.184500000000     0.213050000000    -0.236791   
O128     O      0.408760000000     0.190160000000     0.195490000000    -0.237688   
O129     O      0.825430000000     0.393990000000     0.451580000000    -0.230801   
O130     O      0.893610000000     0.459230000000     0.451430000000    -0.230553   
O131     O      0.828480000000     0.427910000000     0.504030000000    -0.23222    
O132     O      0.826600000000     0.432700000000     0.413460000000    -0.239812   
O133     O      0.860320000000     0.460750000000     0.409320000000    -0.230177   
O134     O      0.847350000000     0.461750000000     0.486450000000    -0.241502   
O135     O      0.858020000000     0.405930000000     0.430080000000    -0.238985   
O136     O      0.881410000000     0.436240000000     0.491500000000    -0.238046   
O137     O      0.127420000000     0.517530000000     0.547230000000    -0.237131   
O138     O      0.063690000000     0.510320000000     0.578120000000    -0.235027   
O139     O      0.132520000000     0.573470000000     0.572740000000    -0.235442   
O140     O      0.120660000000     0.533320000000     0.623430000000    -0.237329   
O141     O      0.101110000000     0.500730000000     0.601670000000    -0.230334   
O142     O      0.100470000000     0.562100000000     0.595420000000    -0.238547   
O143     O      0.122730000000     0.539450000000     0.515720000000    -0.230887   
O144     O      0.074850000000     0.522250000000     0.530020000000    -0.237881   
O145     O      0.089570000000     0.165030000000     0.358440000000    -0.231551   
O146     O      0.126340000000     0.199720000000     0.446610000000    -0.231446   
O147     O      0.057440000000     0.168290000000     0.405530000000    -0.230161   
O148     O      0.099000000000     0.221900000000     0.368540000000    -0.237688   
O149     O      0.124430000000     0.233610000000     0.405610000000    -0.229946   
O150     O      0.071890000000     0.199070000000     0.432620000000    -0.238783   
O151     O      0.124300000000     0.190670000000     0.363630000000    -0.240762   
O152     O      0.097450000000     0.166590000000     0.443340000000    -0.241068   
O153     O      0.203350000000     0.467050000000     0.341660000000    -0.230899   
O154     O      0.172060000000     0.403540000000     0.283880000000    -0.23206    
O155     O      0.236190000000     0.469420000000     0.291290000000    -0.232116   
O156     O      0.197840000000     0.469660000000     0.247570000000    -0.239303   
O157     O      0.166370000000     0.438420000000     0.249750000000    -0.230151   
O158     O      0.222810000000     0.439800000000     0.261860000000    -0.239588   
O159     O      0.171320000000     0.456540000000     0.319400000000    -0.239398   
O160     O      0.187050000000     0.414840000000     0.330640000000    -0.239408   
O161     O      0.394510000000     0.839550000000     0.071560000000    -0.230674   
O162     O      0.462460000000     0.902920000000     0.074860000000    -0.231121   
O163     O      0.427860000000     0.836680000000     0.025100000000    -0.231361   
O164     O      0.461530000000     0.867430000000     0.118410000000    -0.230366   
O165     O      0.434510000000     0.833810000000     0.109210000000    -0.24059    
O166     O      0.462700000000     0.858510000000     0.037340000000    -0.240867   
O167     O      0.409850000000     0.865480000000     0.107560000000    -0.239847   
O168     O      0.436190000000     0.891380000000     0.039180000000    -0.239424   
O169     O      0.539680000000     0.136100000000     0.007640000000    -0.230755   
O170     O      0.507980000000     0.071930000000     0.951600000000    -0.231925   
O171     O      0.572440000000     0.137510000000     0.957390000000    -0.23187    
O172     O      0.533680000000     0.138270000000     0.914560000000    -0.239472   
O173     O      0.502660000000     0.106560000000     0.915920000000    -0.230061   
O174     O      0.558510000000     0.107950000000     0.927740000000    -0.239636   
O175     O      0.507180000000     0.124450000000     0.986160000000    -0.239624   
O176     O      0.524120000000     0.083810000000     0.997580000000    -0.239418   
O177     O      0.792870000000     0.847760000000     0.879580000000    -0.237296   
O178     O      0.731260000000     0.842350000000     0.910170000000    -0.235427   
O179     O      0.767660000000     0.893860000000     0.929290000000    -0.238441   
O180     O      0.768260000000     0.832640000000     0.935260000000    -0.229747   
O181     O      0.788000000000     0.865140000000     0.957190000000    -0.237466   
O182     O      0.800360000000     0.905300000000     0.908670000000    -0.234482   
O183     O      0.793220000000     0.873930000000     0.851290000000    -0.231067   
O184     O      0.743170000000     0.856030000000     0.863000000000    -0.238944   
O185     O      0.497370000000     0.728900000000     0.787860000000    -0.23081    
O186     O      0.562140000000     0.795660000000     0.784320000000    -0.230979   
O187     O      0.496150000000     0.763200000000     0.835080000000    -0.23131    
O188     O      0.492990000000     0.769160000000     0.750220000000    -0.240569   
O189     O      0.526990000000     0.795580000000     0.741050000000    -0.230275   
O190     O      0.518140000000     0.797580000000     0.821270000000    -0.24083    
O191     O      0.524260000000     0.743670000000     0.753030000000    -0.239989   
O192     O      0.550110000000     0.770230000000     0.821160000000    -0.239392   
O193     O      0.131870000000     0.581490000000     0.026470000000    -0.231662   
O194     O      0.099720000000     0.583590000000     0.117780000000    -0.230519   
O195     O      0.128980000000     0.545300000000     0.072510000000    -0.230708   
O196     O      0.076680000000     0.533660000000     0.039540000000    -0.239216   
O197     O      0.064800000000     0.547250000000     0.076180000000    -0.230887   
O198     O      0.102480000000     0.533620000000     0.107880000000    -0.239656   
O199     O      0.108280000000     0.592330000000     0.036750000000    -0.241      
O200     O      0.133480000000     0.590110000000     0.111060000000    -0.240766   
O201     O      0.859150000000     0.439700000000     0.931830000000    -0.238508   
O202     O      0.839340000000     0.390810000000     0.902570000000    -0.237496   
O203     O      0.833550000000     0.393730000000     0.008890000000    -0.231356   
O204     O      0.883570000000     0.426040000000     0.997350000000    -0.239013   
O205     O      0.895460000000     0.424490000000     0.950110000000    -0.235872   
O206     O      0.833590000000     0.367790000000     0.980440000000    -0.237168   
O207     O      0.826260000000     0.417630000000     0.951510000000    -0.234724   
O208     O      0.858330000000     0.377540000000     0.924870000000    -0.23005    
O209     O      0.167300000000     0.061140000000     0.671740000000    -0.230621   
O210     O      0.229840000000     0.093340000000     0.614030000000    -0.231922   
O211     O      0.163610000000     0.090930000000     0.619530000000    -0.232943   
O212     O      0.164110000000     0.053070000000     0.575560000000    -0.238797   
O213     O      0.195400000000     0.053250000000     0.578780000000    -0.229728   
O214     O      0.194010000000     0.108100000000     0.591550000000    -0.239989   
O215     O      0.173790000000     0.038070000000     0.645790000000    -0.239134   
O216     O      0.217820000000     0.096080000000     0.660680000000    -0.239121   
O217     O      0.464980000000     0.248360000000     0.693670000000    -0.2315     
O218     O      0.432860000000     0.249150000000     0.786840000000    -0.230312   
O219     O      0.463580000000     0.213030000000     0.740370000000    -0.230867   
O220     O      0.410710000000     0.201110000000     0.706420000000    -0.239251   
O221     O      0.398630000000     0.214290000000     0.743350000000    -0.23121    
O222     O      0.436300000000     0.199910000000     0.774580000000    -0.239919   
O223     O      0.443480000000     0.261070000000     0.707640000000    -0.24089    
O224     O      0.466900000000     0.256550000000     0.779840000000    -0.240393   
O225     O      0.202260000000     0.724120000000     0.837160000000    -0.231635   
O226     O      0.169270000000     0.720850000000     0.742580000000    -0.230865   
O227     O      0.236530000000     0.755180000000     0.785990000000    -0.23097    
O228     O      0.189050000000     0.763740000000     0.826670000000    -0.238332   
O229     O      0.173930000000     0.759770000000     0.779850000000    -0.230405   
O230     O      0.225060000000     0.776290000000     0.765850000000    -0.239219   
O231     O      0.168410000000     0.707760000000     0.818730000000    -0.240448   
O232     O      0.198520000000     0.717480000000     0.746230000000    -0.240074   
O233     O      0.057660000000     0.878710000000     0.900590000000    -0.231973   
O234     O      0.126570000000     0.915960000000     0.942510000000    -0.228659   
O235     O      0.091310000000     0.908130000000     0.847170000000    -0.232562   
O236     O      0.100750000000     0.867320000000     0.864640000000    -0.238928   
O237     O      0.126220000000     0.881950000000     0.901330000000    -0.23201    
O238     O      0.121490000000     0.931510000000     0.872230000000    -0.240398   
O239     O      0.071260000000     0.863090000000     0.930670000000    -0.239533   
O240     O      0.095960000000     0.917180000000     0.943070000000    -0.238101   
O241     O      0.535080000000     0.390470000000     0.503370000000    -0.23125    
O242     O      0.502060000000     0.387430000000     0.409320000000    -0.230519   
O243     O      0.568770000000     0.426410000000     0.457180000000    -0.230558   
O244     O      0.527100000000     0.436890000000     0.488540000000    -0.239421   
O245     O      0.501070000000     0.421910000000     0.452530000000    -0.231157   
O246     O      0.554050000000     0.437330000000     0.420920000000    -0.239854   
O247     O      0.500310000000     0.377280000000     0.490810000000    -0.240734   
O248     O      0.528550000000     0.380460000000     0.419250000000    -0.24058    
O249     O      0.390340000000     0.546320000000     0.566640000000    -0.231889   
O250     O      0.459770000000     0.584770000000     0.609230000000    -0.229954   
O251     O      0.423580000000     0.576970000000     0.516640000000    -0.230898   
O252     O      0.438990000000     0.540670000000     0.527520000000    -0.239501   
O253     O      0.454230000000     0.544540000000     0.574090000000    -0.232259   
O254     O      0.455520000000     0.598560000000     0.539320000000    -0.239515   
O255     O      0.403250000000     0.529680000000     0.595840000000    -0.239672   
O256     O      0.428560000000     0.584790000000     0.610760000000    -0.239314   
O257     O      0.868940000000     0.057070000000     0.169490000000    -0.231373   
O258     O      0.835050000000     0.053570000000     0.076710000000    -0.230727   
O259     O      0.902070000000     0.093700000000     0.124050000000    -0.230654   
O260     O      0.860170000000     0.103250000000     0.155850000000    -0.23947    
O261     O      0.834370000000     0.088610000000     0.119460000000    -0.23121    
O262     O      0.886990000000     0.104090000000     0.087590000000    -0.239986   
O263     O      0.834010000000     0.044390000000     0.158580000000    -0.24091    
O264     O      0.862130000000     0.047370000000     0.086050000000    -0.240798   
O265     O      0.755350000000     0.240610000000     0.183710000000    -0.230953   
O266     O      0.786260000000     0.209660000000     0.242890000000    -0.235651   
O267     O      0.723730000000     0.215660000000     0.238500000000    -0.233643   
O268     O      0.762910000000     0.243690000000     0.288630000000    -0.237585   
O269     O      0.796030000000     0.256570000000     0.268590000000    -0.22984    
O270     O      0.734460000000     0.194620000000     0.260970000000    -0.237886   
O271     O      0.783420000000     0.265920000000     0.210610000000    -0.237167   
O272     O      0.772910000000     0.207680000000     0.195470000000    -0.239594   
O273     O      0.802740000000     0.882300000000     0.409730000000    -0.230964   
O274     O      0.735520000000     0.880590000000     0.410990000000    -0.230358   
O275     O      0.800440000000     0.914390000000     0.358580000000    -0.231916   
O276     O      0.803790000000     0.921910000000     0.447180000000    -0.240186   
O277     O      0.769910000000     0.914770000000     0.454880000000    -0.230444   
O278     O      0.781010000000     0.928670000000     0.375910000000    -0.241394   
O279     O      0.770520000000     0.862490000000     0.432860000000    -0.239114   
O280     O      0.747590000000     0.869380000000     0.371350000000    -0.238287   
O281     O      0.497050000000     0.754410000000     0.285100000000    -0.235456   
O282     O      0.528400000000     0.713490000000     0.257490000000    -0.23031    
O283     O      0.506250000000     0.730650000000     0.342770000000    -0.230909   
O284     O      0.554500000000     0.761640000000     0.329480000000    -0.238199   
O285     O      0.566100000000     0.760990000000     0.281660000000    -0.235357   
O286     O      0.502390000000     0.704010000000     0.311840000000    -0.237074   
O287     O      0.529640000000     0.776090000000     0.264290000000    -0.238588   
O288     O      0.509690000000     0.727060000000     0.235130000000    -0.237377   


