data_structure

_audit_creation_method RASPA-1.0
_audit_creation_date 2023-5-22
_audit_author_name 'Poobodin Mano'

_cell_length_a    33.1936
_cell_length_b    28.852
_cell_length_c    74.0469
_cell_angle_alpha 90.0001
_cell_angle_beta  89.9086
_cell_angle_gamma 89.9678
_cell_volume      70914.7

_symmetry_cell_setting          triclinic
_symmetry_space_group_name_Hall 'P 1'
_symmetry_space_group_name_H-M  'P 1'
_symmetry_Int_Tables_number     1

_symmetry_equiv_pos_as_xyz 'x,y,z'

loop_
_atom_site_label
_atom_site_type_symbol
_atom_site_fract_x
_atom_site_fract_y
_atom_site_fract_z
_atom_site_charge
C1       C      0.926710000000     0.477500000000     0.291650000000     0.288451   
C2       C      0.030560000000     0.375590000000     0.811180000000     0.289523   
C3       C      0.030500000000     0.519120000000     0.832520000000     0.289172   
C4       C      0.926590000000     0.417180000000     0.852060000000     0.288478   
C5       C      0.926730000000     0.477510000000     0.041660000000     0.288686   
C6       C      0.030590000000     0.375590000000     0.061180000000     0.289372   
C7       C      0.030520000000     0.519110000000     0.082520000000     0.289554   
C8       C      0.926610000000     0.417170000000     0.102060000000     0.288401   
C9       C      0.846720000000     0.588920000000     0.918830000000     0.292027   
C10      C      0.763510000000     0.685480000000     0.890540000000     0.287365   
C11      C      0.909690000000     0.685470000000     0.878160000000     0.287427   
C12      C      0.826540000000     0.588880000000     0.849880000000     0.292133   
C13      C      0.763500000000     0.685460000000     0.140530000000     0.287375   
C14      C      0.846700000000     0.588900000000     0.168820000000     0.292214   
C15      C      0.826530000000     0.588850000000     0.099880000000     0.292222   
C16      C      0.909670000000     0.685440000000     0.128160000000     0.28739    
C17      C      0.846630000000     0.305030000000     0.974890000000     0.292123   
C18      C      0.763400000000     0.208480000000     0.003190000000     0.286463   
C19      C      0.909630000000     0.208470000000     0.015510000000     0.287365   
C20      C      0.826340000000     0.304980000000     0.043820000000     0.292123   
C21      C      0.909640000000     0.208450000000     0.265510000000     0.287351   
C22      C      0.826350000000     0.304950000000     0.793820000000     0.292014   
C23      C      0.846650000000     0.304990000000     0.224880000000     0.292044   
C24      C      0.763410000000     0.208460000000     0.253180000000     0.287501   
C25      C      0.746480000000     0.416990000000     0.916690000000     0.288596   
C26      C      0.642580000000     0.519000000000     0.936250000000     0.28935    
C27      C      0.642570000000     0.375470000000     0.957590000000     0.289509   
C28      C      0.746450000000     0.477320000000     0.977090000000     0.288317   
C29      C      0.642590000000     0.519030000000     0.186250000000     0.289376   
C30      C      0.746490000000     0.417020000000     0.166690000000     0.288443   
C31      C      0.746440000000     0.477350000000     0.227100000000     0.288419   
C32      C      0.642570000000     0.375500000000     0.207590000000     0.289603   
C33      C      0.326340000000     0.804950000000     0.918820000000     0.292007   
C34      C      0.409640000000     0.708450000000     0.890510000000     0.287504   
C35      C      0.263400000000     0.708460000000     0.878190000000     0.287509   
C36      C      0.346630000000     0.805000000000     0.849890000000     0.292242   
C37      C      0.326360000000     0.804980000000     0.168820000000     0.292134   
C38      C      0.409650000000     0.708470000000     0.140510000000     0.28748    
C39      C      0.263420000000     0.708480000000     0.128180000000     0.287578   
C40      C      0.346640000000     0.805030000000     0.099880000000     0.291934   
C41      C      0.530510000000     0.019120000000     0.957520000000     0.289176   
C42      C      0.426590000000     0.917190000000     0.977060000000     0.288234   
C43      C      0.426720000000     0.977510000000     0.916650000000     0.288539   
C44      C      0.530580000000     0.875590000000     0.936180000000     0.289367   
C45      C      0.426600000000     0.917170000000     0.227060000000     0.288643   
C46      C      0.530510000000     0.019100000000     0.207520000000     0.28915    
C47      C      0.530570000000     0.875570000000     0.186180000000     0.289547   
C48      C      0.426700000000     0.977490000000     0.166660000000     0.288618   
C49      C      0.326550000000     0.088850000000     0.974880000000     0.292067   
C50      C      0.409680000000     0.185440000000     0.003160000000     0.286432   
C51      C      0.263510000000     0.185450000000     0.015540000000     0.287411   
C52      C      0.346720000000     0.088900000000     0.043830000000     0.292233   
C53      C      0.346710000000     0.088920000000     0.793820000000     0.292204   
C54      C      0.263500000000     0.185480000000     0.265540000000     0.287271   
C55      C      0.409670000000     0.185470000000     0.253150000000     0.287548   
C56      C      0.326530000000     0.088880000000     0.224880000000     0.292028   
C57      C      0.142600000000     0.019010000000     0.811250000000     0.289418   
C58      C      0.246490000000     0.917020000000     0.291690000000     0.288572   
C59      C      0.246450000000     0.977330000000     0.852090000000     0.288527   
C60      C      0.142580000000     0.875490000000     0.832590000000     0.289557   
C61      C      0.142550000000     0.875490000000     0.082590000000     0.289595   
C62      C      0.246420000000     0.977340000000     0.102090000000     0.288603   
C63      C      0.246470000000     0.917000000000     0.041690000000     0.288446   
C64      C      0.142570000000     0.019020000000     0.061240000000     0.289328   
C65      C      0.281740000000     0.052850000000     0.140560000000    -0.0576888  
C66      C      0.295110000000     0.019770000000     0.153140000000     0.0222554  
C67      C      0.295140000000     0.972740000000     0.148210000000    -0.054337   
C68      C      0.280960000000     0.958970000000     0.131270000000     0.0117924  
C69      C      0.266200000000     0.992010000000     0.118990000000    -0.0736431  
C70      C      0.267300000000     0.039100000000     0.123710000000     0.0112839  
C71      C      0.306850000000     0.034430000000     0.171600000000     0.0230982  
C72      C      0.329260000000     0.075130000000     0.174180000000    -0.0554791  
C73      C      0.336580000000     0.091810000000     0.191530000000     0.0159787  
C74      C      0.321560000000     0.068290000000     0.206740000000    -0.0725467  
C75      C      0.300420000000     0.026660000000     0.204260000000     0.0151272  
C76      C      0.293170000000     0.009840000000     0.186830000000    -0.0555386  
C77      C      0.293190000000     0.009810000000     0.936840000000    -0.0555032  
C78      C      0.306880000000     0.034400000000     0.921610000000     0.0231006  
C79      C      0.329290000000     0.075100000000     0.924180000000    -0.0554282  
C80      C      0.336620000000     0.091780000000     0.941540000000     0.0159683  
C81      C      0.321580000000     0.068260000000     0.956750000000    -0.0725173  
C82      C      0.300440000000     0.026630000000     0.954260000000     0.0152216  
C83      C      0.295140000000     0.019740000000     0.903140000000     0.0223241  
C84      C      0.295160000000     0.972720000000     0.898220000000    -0.0544051  
C85      C      0.280980000000     0.958950000000     0.881270000000     0.0117826  
C86      C      0.266230000000     0.991990000000     0.869000000000    -0.0735619  
C87      C      0.267330000000     0.039080000000     0.873720000000     0.0113231  
C88      C      0.281770000000     0.052820000000     0.890560000000    -0.057688   
C89      C      0.378060000000     0.972850000000     0.120520000000    -0.0544447  
C90      C      0.378070000000     0.019870000000     0.115590000000     0.0222904  
C91      C      0.391420000000     0.052960000000     0.128160000000    -0.0577558  
C92      C      0.405850000000     0.039230000000     0.145010000000     0.0113341  
C93      C      0.406950000000     0.992150000000     0.149750000000    -0.0737164  
C94      C      0.392220000000     0.959100000000     0.137470000000     0.0118219  
C95      C      0.366360000000     0.034500000000     0.097120000000     0.02311    
C96      C      0.380100000000     0.009910000000     0.081900000000    -0.0556373  
C97      C      0.372870000000     0.026710000000     0.064470000000     0.0152097  
C98      C      0.351680000000     0.068330000000     0.061970000000    -0.0727915  
C99      C      0.336580000000     0.091850000000     0.077170000000     0.0160554  
C100     C      0.343890000000     0.075190000000     0.094530000000    -0.0555792  
C101     C      0.391450000000     0.052980000000     0.878150000000    -0.0577613  
C102     C      0.378090000000     0.019890000000     0.865580000000     0.022312   
C103     C      0.378070000000     0.972880000000     0.870520000000    -0.0544674  
C104     C      0.392240000000     0.959130000000     0.887470000000     0.0118817  
C105     C      0.406970000000     0.992170000000     0.899740000000    -0.0737369  
C106     C      0.405880000000     0.039250000000     0.895000000000     0.0113524  
C107     C      0.366370000000     0.034530000000     0.847110000000     0.0230638  
C108     C      0.343900000000     0.075210000000     0.844520000000    -0.0554513  
C109     C      0.336590000000     0.091880000000     0.827160000000     0.0159869  
C110     C      0.351680000000     0.068350000000     0.811960000000    -0.0726847  
C111     C      0.372870000000     0.026730000000     0.814460000000     0.0151689  
C112     C      0.380110000000     0.009930000000     0.831890000000    -0.0555997  
C113     C      0.329220000000     0.818870000000     0.219510000000    -0.0554961  
C114     C      0.306840000000     0.859630000000     0.222110000000     0.0231023  
C115     C      0.293150000000     0.884210000000     0.206890000000    -0.0556001  
C116     C      0.300350000000     0.867330000000     0.189460000000     0.0151892  
C117     C      0.321430000000     0.825620000000     0.186960000000    -0.0726473  
C118     C      0.336470000000     0.802110000000     0.202150000000     0.0159915  
C119     C      0.295140000000     0.874370000000     0.240590000000     0.0222285  
C120     C      0.281790000000     0.841350000000     0.253200000000    -0.0576436  
C121     C      0.267360000000     0.855170000000     0.270070000000     0.0111718  
C122     C      0.266270000000     0.902270000000     0.274760000000    -0.0734854  
C123     C      0.281000000000     0.935250000000     0.262440000000     0.0117289  
C124     C      0.295180000000     0.921400000000     0.245490000000    -0.0542704  
C125     C      0.377850000000     0.921540000000     0.023240000000    -0.0541762  
C126     C      0.377880000000     0.874490000000     0.028130000000     0.0223589  
C127     C      0.391250000000     0.841480000000     0.015500000000    -0.0590266  
C128     C      0.405680000000     0.855330000000     0.998650000000     0.0124221  
C129     C      0.406790000000     0.902440000000     0.993970000000    -0.0726406  
C130     C      0.392030000000     0.935410000000     0.006290000000     0.0103977  
C131     C      0.366170000000     0.859730000000     0.046610000000     0.0230386  
C132     C      0.379810000000     0.884310000000     0.061830000000    -0.0555916  
C133     C      0.372600000000     0.867400000000     0.079260000000     0.0151733  
C134     C      0.351570000000     0.825690000000     0.081750000000    -0.0726171  
C135     C      0.336580000000     0.802180000000     0.066550000000     0.0159107  
C136     C      0.343850000000     0.818960000000     0.049190000000    -0.0554937  
C137     C      0.293130000000     0.884190000000     0.956900000000    -0.0553592  
C138     C      0.306820000000     0.859600000000     0.972110000000     0.0226189  
C139     C      0.329190000000     0.818840000000     0.969510000000    -0.0551223  
C140     C      0.336440000000     0.802080000000     0.952150000000     0.0158644  
C141     C      0.321410000000     0.825590000000     0.936960000000    -0.0725081  
C142     C      0.300330000000     0.867300000000     0.939470000000     0.0151088  
C143     C      0.295120000000     0.874340000000     0.990590000000     0.0239064  
C144     C      0.295160000000     0.921380000000     0.995490000000    -0.05351    
C145     C      0.280980000000     0.935230000000     0.012450000000     0.0108169  
C146     C      0.266240000000     0.902260000000     0.024770000000    -0.0738208  
C147     C      0.267330000000     0.855150000000     0.020070000000     0.0121594  
C148     C      0.281750000000     0.841320000000     0.003210000000    -0.0606974  
C149     C      0.391270000000     0.841460000000     0.265510000000    -0.0576522  
C150     C      0.377890000000     0.874470000000     0.278140000000     0.0221988  
C151     C      0.377860000000     0.921520000000     0.773250000000    -0.0542623  
C152     C      0.392040000000     0.935380000000     0.256300000000     0.0117888  
C153     C      0.406810000000     0.902420000000     0.243980000000    -0.0735724  
C154     C      0.405710000000     0.855300000000     0.248660000000     0.0112651  
C155     C      0.366180000000     0.859710000000     0.796610000000     0.0231127  
C156     C      0.343860000000     0.818940000000     0.799200000000    -0.0554582  
C157     C      0.336590000000     0.802160000000     0.816550000000     0.0159968  
C158     C      0.351560000000     0.825660000000     0.831750000000    -0.072621   
C159     C      0.372600000000     0.867380000000     0.829260000000     0.0152307  
C160     C      0.379810000000     0.884290000000     0.811840000000    -0.0556262  
C161     C      0.585250000000     0.604840000000     0.157190000000    -0.0574056  
C162     C      0.548550000000     0.608020000000     0.166590000000     0.0213092  
C163     C      0.544370000000     0.584720000000     0.183140000000    -0.0567503  
C164     C      0.575590000000     0.557310000000     0.189840000000     0.0123685  
C165     C      0.611650000000     0.552350000000     0.180080000000    -0.0720674  
C166     C      0.616520000000     0.577110000000     0.163850000000     0.0114052  
C167     C      0.513790000000     0.633440000000     0.158860000000     0.0208366  
C168     C      0.518100000000     0.678530000000     0.151940000000    -0.0557085  
C169     C      0.484460000000     0.702840000000     0.145530000000     0.0114749  
C170     C      0.446080000000     0.682170000000     0.145760000000    -0.0713697  
C171     C      0.442200000000     0.636540000000     0.152140000000     0.012245   
C172     C      0.475610000000     0.612550000000     0.158660000000    -0.0560091  
C173     C      0.518150000000     0.215660000000     0.241770000000    -0.0557616  
C174     C      0.513790000000     0.260760000000     0.234870000000     0.0208559  
C175     C      0.475540000000     0.281570000000     0.235050000000    -0.0560089  
C176     C      0.442130000000     0.257480000000     0.241540000000     0.0122247  
C177     C      0.446080000000     0.211840000000     0.247910000000    -0.0713391  
C178     C      0.484520000000     0.191250000000     0.248140000000     0.0115325  
C179     C      0.548550000000     0.286290000000     0.227170000000     0.0213383  
C180     C      0.585140000000     0.289520000000     0.236590000000    -0.0574679  
C181     C      0.616400000000     0.317340000000     0.229960000000     0.0115079  
C182     C      0.611630000000     0.342130000000     0.213740000000    -0.072116   
C183     C      0.575680000000     0.337120000000     0.203950000000     0.012366   
C184     C      0.544470000000     0.309630000000     0.210620000000    -0.0567694  
C185     C      0.518090000000     0.678520000000     0.901950000000    -0.0556741  
C186     C      0.513780000000     0.633420000000     0.908860000000     0.0208484  
C187     C      0.475600000000     0.612520000000     0.908660000000    -0.0560004  
C188     C      0.442190000000     0.636520000000     0.902140000000     0.0122504  
C189     C      0.446070000000     0.682160000000     0.895770000000    -0.0713215  
C190     C      0.484450000000     0.702830000000     0.895540000000     0.0114629  
C191     C      0.548540000000     0.608000000000     0.916590000000     0.0213637  
C192     C      0.585250000000     0.604840000000     0.907200000000    -0.0575045  
C193     C      0.616510000000     0.577110000000     0.913860000000     0.0115065  
C194     C      0.611640000000     0.552330000000     0.930080000000    -0.0720354  
C195     C      0.575580000000     0.557270000000     0.939840000000     0.0124023  
C196     C      0.544350000000     0.584680000000     0.933140000000    -0.056731   
C197     C      0.544480000000     0.309590000000     0.960630000000    -0.0567264  
C198     C      0.548560000000     0.286260000000     0.977180000000     0.0213428  
C199     C      0.585150000000     0.289510000000     0.986600000000    -0.0574292  
C200     C      0.616400000000     0.317330000000     0.979960000000     0.0116007  
C201     C      0.611640000000     0.342110000000     0.963740000000    -0.0721113  
C202     C      0.575690000000     0.337080000000     0.953950000000     0.0124214  
C203     C      0.513790000000     0.260740000000     0.984870000000     0.0210498  
C204     C      0.475550000000     0.281540000000     0.985050000000    -0.055972   
C205     C      0.442140000000     0.257450000000     0.991540000000     0.0121365  
C206     C      0.446090000000     0.211810000000     0.997920000000    -0.0705293  
C207     C      0.484530000000     0.191240000000     0.998160000000     0.0127625  
C208     C      0.518160000000     0.215650000000     0.991780000000    -0.0560679  
C209     C      0.018100000000     0.178520000000     0.276940000000    -0.055455   
C210     C      0.013800000000     0.133430000000     0.283860000000     0.0209715  
C211     C      0.975610000000     0.112530000000     0.783660000000    -0.0562472  
C212     C      0.942200000000     0.136520000000     0.777140000000     0.0122467  
C213     C      0.946080000000     0.182160000000     0.270770000000    -0.0712014  
C214     C      0.984460000000     0.202830000000     0.270540000000     0.0111957  
C215     C      0.048560000000     0.108010000000     0.791590000000     0.0213268  
C216     C      0.085260000000     0.104840000000     0.282190000000    -0.0575543  
C217     C      0.116520000000     0.077110000000     0.288860000000     0.0116069  
C218     C      0.111650000000     0.052340000000     0.805080000000    -0.0720011  
C219     C      0.075590000000     0.057290000000     0.814840000000     0.0123704  
C220     C      0.044370000000     0.084700000000     0.808140000000    -0.056712   
C221     C      0.628680000000     0.084780000000     0.210580000000    -0.0566716  
C222     C      0.624540000000     0.108040000000     0.227150000000     0.0212441  
C223     C      0.587880000000     0.104840000000     0.236570000000    -0.0573439  
C224     C      0.556610000000     0.077130000000     0.229920000000     0.011336   
C225     C      0.561450000000     0.052410000000     0.213680000000    -0.0718974  
C226     C      0.597460000000     0.057390000000     0.203890000000     0.0122758  
C227     C      0.659290000000     0.133460000000     0.234860000000     0.0209063  
C228     C      0.697510000000     0.112580000000     0.235020000000    -0.0560599  
C229     C      0.730910000000     0.136560000000     0.241520000000     0.0122835  
C230     C      0.727000000000     0.182180000000     0.247930000000    -0.0713868  
C231     C      0.688590000000     0.202830000000     0.248190000000     0.0115279  
C232     C      0.654950000000     0.178520000000     0.241800000000    -0.0557736  
C233     C      0.829200000000     0.318840000000     0.844510000000    -0.055483   
C234     C      0.806830000000     0.359610000000     0.847110000000     0.0230755  
C235     C      0.793140000000     0.384190000000     0.831890000000    -0.055589   
C236     C      0.800340000000     0.367300000000     0.814460000000     0.0151627  
C237     C      0.821420000000     0.325590000000     0.811960000000    -0.0726091  
C238     C      0.836460000000     0.302080000000     0.827150000000     0.0159613  
C239     C      0.795120000000     0.374340000000     0.865590000000     0.0222585  
C240     C      0.781760000000     0.341320000000     0.878200000000    -0.0577496  
C241     C      0.767340000000     0.355150000000     0.895060000000     0.0113095  
C242     C      0.766250000000     0.402250000000     0.899760000000    -0.0735832  
C243     C      0.780990000000     0.435230000000     0.887440000000     0.0117889  
C244     C      0.795160000000     0.421380000000     0.870490000000    -0.0543158  
C245     C      0.975590000000     0.112540000000     0.033660000000    -0.0563253  
C246     C      0.013780000000     0.133440000000     0.033850000000     0.0210078  
C247     C      0.018090000000     0.178530000000     0.026940000000    -0.0555941  
C248     C      0.984450000000     0.202850000000     0.020540000000     0.0112137  
C249     C      0.946060000000     0.182180000000     0.020760000000    -0.0714298  
C250     C      0.942180000000     0.136540000000     0.027140000000     0.0122225  
C251     C      0.048540000000     0.108010000000     0.041590000000     0.021324   
C252     C      0.044350000000     0.084710000000     0.058140000000    -0.0567581  
C253     C      0.075570000000     0.057290000000     0.064840000000     0.0124026  
C254     C      0.111630000000     0.052340000000     0.055080000000    -0.0721351  
C255     C      0.116500000000     0.077110000000     0.038850000000     0.0114668  
C256     C      0.085240000000     0.104850000000     0.032190000000    -0.0575414  
C257     C      0.654940000000     0.178530000000     0.991820000000    -0.0561252  
C258     C      0.659290000000     0.133470000000     0.984870000000     0.0210612  
C259     C      0.697500000000     0.112600000000     0.985020000000    -0.05594    
C260     C      0.730910000000     0.136580000000     0.991530000000     0.0121336  
C261     C      0.726990000000     0.182190000000     0.997940000000    -0.0705546  
C262     C      0.688570000000     0.202840000000     0.998210000000     0.0127536  
C263     C      0.624530000000     0.108050000000     0.977160000000     0.0213286  
C264     C      0.587880000000     0.104840000000     0.986580000000    -0.0573377  
C265     C      0.556610000000     0.077130000000     0.979930000000     0.0114325  
C266     C      0.561440000000     0.052420000000     0.963680000000    -0.0719541  
C267     C      0.597460000000     0.057420000000     0.953900000000     0.012425   
C268     C      0.628680000000     0.084810000000     0.960590000000    -0.0567562  
C269     C      0.793140000000     0.384210000000     0.081900000000    -0.0556904  
C270     C      0.806840000000     0.359630000000     0.097110000000     0.023146   
C271     C      0.829220000000     0.318870000000     0.094510000000    -0.0555387  
C272     C      0.836470000000     0.302110000000     0.077150000000     0.0159855  
C273     C      0.821420000000     0.325620000000     0.061960000000    -0.0727284  
C274     C      0.800340000000     0.367320000000     0.064470000000     0.0152234  
C275     C      0.795140000000     0.374370000000     0.115590000000     0.0222005  
C276     C      0.795170000000     0.421410000000     0.120490000000    -0.0543517  
C277     C      0.781000000000     0.435250000000     0.137450000000     0.0117902  
C278     C      0.766260000000     0.402270000000     0.149770000000    -0.0736274  
C279     C      0.767360000000     0.355170000000     0.145070000000     0.0112783  
C280     C      0.781780000000     0.341350000000     0.128210000000    -0.0576745  
C281     C      0.587970000000     0.789510000000     0.157170000000    -0.0574958  
C282     C      0.624600000000     0.786310000000     0.166570000000     0.0213712  
C283     C      0.628710000000     0.809690000000     0.183100000000    -0.0568214  
C284     C      0.597490000000     0.837200000000     0.189780000000     0.0125171  
C285     C      0.561510000000     0.842180000000     0.180030000000    -0.0722421  
C286     C      0.556700000000     0.817350000000     0.163820000000     0.0115139  
C287     C      0.659360000000     0.760770000000     0.158850000000     0.0208311  
C288     C      0.655020000000     0.715660000000     0.151970000000    -0.0557439  
C289     C      0.688670000000     0.691240000000     0.145580000000     0.0114861  
C290     C      0.727080000000     0.711840000000     0.145780000000    -0.07133    
C291     C      0.730990000000     0.757500000000     0.152130000000     0.012221   
C292     C      0.697580000000     0.781590000000     0.158630000000    -0.0559988  
C293     C      0.975530000000     0.781550000000     0.110050000000    -0.0562592  
C294     C      0.013780000000     0.760750000000     0.109870000000     0.021007   
C295     C      0.018150000000     0.715650000000     0.116770000000    -0.0555179  
C296     C      0.984520000000     0.691240000000     0.123150000000     0.011197   
C297     C      0.946080000000     0.711820000000     0.122910000000    -0.071217   
C298     C      0.942130000000     0.757460000000     0.116540000000     0.0122075  
C299     C      0.048540000000     0.786280000000     0.102170000000     0.0213276  
C300     C      0.044460000000     0.809610000000     0.085630000000    -0.0567674  
C301     C      0.075670000000     0.837110000000     0.078960000000     0.0124301  
C302     C      0.111620000000     0.842120000000     0.088740000000    -0.072228   
C303     C      0.116390000000     0.817340000000     0.104960000000     0.0115591  
C304     C      0.085140000000     0.789520000000     0.111600000000    -0.0574831  
C305     C      0.795160000000     0.472720000000     0.023210000000    -0.0542306  
C306     C      0.795140000000     0.519740000000     0.028130000000     0.0224046  
C307     C      0.781770000000     0.552820000000     0.015560000000    -0.0590381  
C308     C      0.767330000000     0.539070000000     0.998710000000     0.0123568  
C309     C      0.766230000000     0.491980000000     0.993990000000    -0.0726379  
C310     C      0.780980000000     0.458950000000     0.006270000000     0.0104373  
C311     C      0.806870000000     0.534400000000     0.046600000000     0.0230269  
C312     C      0.793180000000     0.509810000000     0.061830000000    -0.0556724  
C313     C      0.800430000000     0.526630000000     0.079250000000     0.0152481  
C314     C      0.821570000000     0.568270000000     0.081740000000    -0.0727163  
C315     C      0.836600000000     0.591780000000     0.066530000000     0.0160198  
C316     C      0.829280000000     0.575100000000     0.049180000000    -0.0555252  
C317     C      0.655030000000     0.715660000000     0.901980000000    -0.0557721  
C318     C      0.659370000000     0.760790000000     0.908860000000     0.0208689  
C319     C      0.697580000000     0.781610000000     0.908630000000    -0.055957   
C320     C      0.731000000000     0.757520000000     0.902130000000     0.0122035  
C321     C      0.727090000000     0.711850000000     0.895790000000    -0.071312   
C322     C      0.688680000000     0.691250000000     0.895590000000     0.0115127  
C323     C      0.624600000000     0.786320000000     0.916570000000     0.0213289  
C324     C      0.587970000000     0.789520000000     0.907180000000    -0.0574081  
C325     C      0.556710000000     0.817350000000     0.913820000000     0.0114533  
C326     C      0.561520000000     0.842200000000     0.930030000000    -0.0721067  
C327     C      0.597510000000     0.837230000000     0.939780000000     0.0124651  
C328     C      0.628720000000     0.809720000000     0.933100000000    -0.0567016  
C329     C      0.018170000000     0.715660000000     0.866770000000    -0.0554967  
C330     C      0.013800000000     0.760760000000     0.859870000000     0.0210131  
C331     C      0.975550000000     0.781560000000     0.860050000000    -0.0562177  
C332     C      0.942140000000     0.757480000000     0.866540000000     0.0122261  
C333     C      0.946090000000     0.711830000000     0.872910000000    -0.0712754  
C334     C      0.984530000000     0.691250000000     0.873150000000     0.0112366  
C335     C      0.048560000000     0.786280000000     0.852170000000     0.0213763  
C336     C      0.085150000000     0.789520000000     0.861590000000    -0.057481   
C337     C      0.116410000000     0.817340000000     0.854960000000     0.0115439  
C338     C      0.111640000000     0.842120000000     0.838740000000    -0.0721391  
C339     C      0.075700000000     0.837110000000     0.828950000000     0.0124579  
C340     C      0.044480000000     0.809610000000     0.835620000000    -0.0568134  
C341     C      0.781750000000     0.552840000000     0.265570000000    -0.0576669  
C342     C      0.795130000000     0.519760000000     0.278140000000     0.0222572  
C343     C      0.795150000000     0.472740000000     0.773220000000    -0.0543955  
C344     C      0.780970000000     0.458970000000     0.256280000000     0.011792   
C345     C      0.766220000000     0.492010000000     0.244000000000    -0.073567   
C346     C      0.767310000000     0.539100000000     0.248720000000     0.0112009  
C347     C      0.806860000000     0.534420000000     0.796610000000     0.0231303  
C348     C      0.829270000000     0.575130000000     0.799180000000    -0.0555002  
C349     C      0.836600000000     0.591810000000     0.816540000000     0.0159773  
C350     C      0.821570000000     0.568280000000     0.831750000000    -0.07271    
C351     C      0.800430000000     0.526650000000     0.829260000000     0.0152712  
C352     C      0.793190000000     0.509830000000     0.811840000000    -0.0556546  
C353     C      0.128690000000     0.584800000000     0.085590000000    -0.0568216  
C354     C      0.124540000000     0.608050000000     0.102150000000     0.0213929  
C355     C      0.087890000000     0.604850000000     0.111580000000    -0.0575304  
C356     C      0.056620000000     0.577130000000     0.104930000000     0.0114592  
C357     C      0.061460000000     0.552420000000     0.088680000000    -0.0720873  
C358     C      0.097470000000     0.557410000000     0.078900000000     0.0124065  
C359     C      0.159300000000     0.633470000000     0.109870000000     0.0208107  
C360     C      0.197520000000     0.612600000000     0.110020000000    -0.0560181  
C361     C      0.230920000000     0.636580000000     0.116530000000     0.0122128  
C362     C      0.227000000000     0.682200000000     0.122940000000    -0.0713655  
C363     C      0.188590000000     0.702850000000     0.123200000000     0.0114758  
C364     C      0.154960000000     0.678540000000     0.116810000000    -0.0557002  
C365     C      0.197590000000     0.281600000000     0.033630000000    -0.0561121  
C366     C      0.159380000000     0.260780000000     0.033850000000     0.0208595  
C367     C      0.155040000000     0.215650000000     0.026980000000    -0.0558358  
C368     C      0.188680000000     0.191240000000     0.020590000000     0.0115238  
C369     C      0.227090000000     0.211830000000     0.020790000000    -0.0714749  
C370     C      0.231000000000     0.257500000000     0.027130000000     0.0122366  
C371     C      0.124610000000     0.286320000000     0.041570000000     0.0213505  
C372     C      0.128730000000     0.309700000000     0.058100000000    -0.0567771  
C373     C      0.097520000000     0.337220000000     0.064780000000     0.0123909  
C374     C      0.061530000000     0.342190000000     0.055020000000    -0.0721061  
C375     C      0.056720000000     0.317350000000     0.038820000000     0.0115328  
C376     C      0.087980000000     0.289510000000     0.032170000000    -0.057582   
C377     C      0.891280000000     0.341460000000     0.140510000000    -0.057707   
C378     C      0.877900000000     0.374470000000     0.153130000000     0.0222959  
C379     C      0.877860000000     0.421520000000     0.148250000000    -0.0544237  
C380     C      0.892050000000     0.435390000000     0.131300000000     0.0117831  
C381     C      0.906810000000     0.402420000000     0.118970000000    -0.0735871  
C382     C      0.905720000000     0.355300000000     0.123650000000     0.0112374  
C383     C      0.866190000000     0.359710000000     0.171610000000     0.0231168  
C384     C      0.843870000000     0.318930000000     0.174190000000    -0.0554565  
C385     C      0.836600000000     0.302150000000     0.191550000000     0.0159584  
C386     C      0.851580000000     0.325660000000     0.206750000000    -0.0726318  
C387     C      0.872600000000     0.367380000000     0.204260000000     0.0152319  
C388     C      0.879820000000     0.384280000000     0.186830000000    -0.0556106  
C389     C      0.891460000000     0.552980000000     0.003160000000    -0.060708   
C390     C      0.878100000000     0.519890000000     0.990590000000     0.0239013  
C391     C      0.878080000000     0.472880000000     0.995520000000    -0.0535378  
C392     C      0.892240000000     0.459130000000     0.012470000000     0.0108187  
C393     C      0.906980000000     0.492170000000     0.024740000000    -0.0738043  
C394     C      0.905890000000     0.539250000000     0.020010000000     0.012135   
C395     C      0.866380000000     0.534530000000     0.972120000000     0.0226328  
C396     C      0.843910000000     0.575220000000     0.969530000000    -0.0552684  
C397     C      0.836600000000     0.591880000000     0.952170000000     0.0159055  
C398     C      0.851690000000     0.568350000000     0.936970000000    -0.0725604  
C399     C      0.872880000000     0.526730000000     0.939470000000     0.0150794  
C400     C      0.880110000000     0.509930000000     0.956900000000    -0.055377   
C401     C      0.087870000000     0.604840000000     0.861580000000    -0.0575158  
C402     C      0.124530000000     0.608050000000     0.852150000000     0.0213516  
C403     C      0.128670000000     0.584800000000     0.835580000000    -0.0567719  
C404     C      0.097450000000     0.557400000000     0.828900000000     0.012431   
C405     C      0.061430000000     0.552420000000     0.838680000000    -0.0720421  
C406     C      0.056600000000     0.577130000000     0.854920000000     0.0115296  
C407     C      0.159290000000     0.633460000000     0.859870000000     0.0209026  
C408     C      0.154940000000     0.678530000000     0.866810000000    -0.0557689  
C409     C      0.188580000000     0.702830000000     0.873200000000     0.0115527  
C410     C      0.226990000000     0.682180000000     0.872940000000    -0.0713628  
C411     C      0.230900000000     0.636560000000     0.866530000000     0.0122773  
C412     C      0.197500000000     0.612580000000     0.860020000000    -0.0560387  
C413     C      0.197570000000     0.281610000000     0.783630000000    -0.0560173  
C414     C      0.159360000000     0.260790000000     0.283860000000     0.0208524  
C415     C      0.155020000000     0.215670000000     0.276980000000    -0.0556978  
C416     C      0.188670000000     0.191250000000     0.270590000000     0.0114539  
C417     C      0.227080000000     0.211850000000     0.270790000000    -0.0712575  
C418     C      0.230990000000     0.257520000000     0.777130000000     0.0122151  
C419     C      0.124590000000     0.286320000000     0.791570000000     0.021342   
C420     C      0.128710000000     0.309710000000     0.808100000000    -0.0567209  
C421     C      0.097490000000     0.337220000000     0.814790000000     0.0123869  
C422     C      0.061500000000     0.342200000000     0.805030000000    -0.0721224  
C423     C      0.056690000000     0.317350000000     0.288820000000     0.0114955  
C424     C      0.087960000000     0.289520000000     0.282180000000    -0.0574299  
C425     C      0.891250000000     0.341480000000     0.890510000000    -0.0576719  
C426     C      0.877880000000     0.374500000000     0.903130000000     0.0222761  
C427     C      0.877840000000     0.421540000000     0.898250000000    -0.0543137  
C428     C      0.892030000000     0.435410000000     0.881300000000     0.0117377  
C429     C      0.906790000000     0.402430000000     0.868970000000    -0.0735863  
C430     C      0.905680000000     0.355320000000     0.873650000000     0.0112468  
C431     C      0.866170000000     0.359730000000     0.921610000000     0.0231013  
C432     C      0.843840000000     0.318970000000     0.924200000000    -0.055376   
C433     C      0.836570000000     0.302190000000     0.941550000000     0.0159329  
C434     C      0.851550000000     0.325690000000     0.956750000000    -0.0724169  
C435     C      0.872590000000     0.367400000000     0.954260000000     0.0151825  
C436     C      0.879800000000     0.384310000000     0.936830000000    -0.0555399  
C437     C      0.880100000000     0.509900000000     0.206890000000    -0.0557124  
C438     C      0.866350000000     0.534500000000     0.222110000000     0.0231252  
C439     C      0.843880000000     0.575180000000     0.219520000000    -0.0554647  
C440     C      0.836570000000     0.591850000000     0.202160000000     0.0159932  
C441     C      0.851660000000     0.568330000000     0.186960000000    -0.0727213  
C442     C      0.872860000000     0.526710000000     0.189460000000     0.0152164  
C443     C      0.878070000000     0.519870000000     0.240580000000     0.0221998  
C444     C      0.878060000000     0.472860000000     0.245520000000    -0.0543424  
C445     C      0.892220000000     0.459110000000     0.262470000000     0.0117975  
C446     C      0.906950000000     0.492150000000     0.274740000000    -0.0736052  
C447     C      0.905860000000     0.539230000000     0.270010000000     0.0111778  
C448     C      0.891420000000     0.552960000000     0.253150000000    -0.0576575  
C449     C      0.926700000000     0.477500000000     0.791660000000     0.288564   
C450     C      0.030560000000     0.375580000000     0.311180000000     0.289512   
C451     C      0.030500000000     0.519110000000     0.332520000000     0.289152   
C452     C      0.926580000000     0.417180000000     0.352060000000     0.288498   
C453     C      0.926730000000     0.477510000000     0.541660000000     0.288657   
C454     C      0.030590000000     0.375580000000     0.561180000000     0.289356   
C455     C      0.030520000000     0.519110000000     0.582520000000     0.289472   
C456     C      0.926610000000     0.417170000000     0.602060000000     0.288415   
C457     C      0.846720000000     0.588920000000     0.418830000000     0.292234   
C458     C      0.763510000000     0.685480000000     0.390540000000     0.287359   
C459     C      0.909690000000     0.685470000000     0.378160000000     0.287455   
C460     C      0.826540000000     0.588880000000     0.349880000000     0.29217    
C461     C      0.763500000000     0.685450000000     0.640530000000     0.287447   
C462     C      0.846700000000     0.588890000000     0.668820000000     0.29216    
C463     C      0.826530000000     0.588850000000     0.599880000000     0.292255   
C464     C      0.909670000000     0.685440000000     0.628160000000     0.287402   
C465     C      0.846630000000     0.305030000000     0.474890000000     0.292135   
C466     C      0.763400000000     0.208480000000     0.503190000000     0.287523   
C467     C      0.909630000000     0.208470000000     0.515510000000     0.287359   
C468     C      0.826340000000     0.304980000000     0.543820000000     0.292091   
C469     C      0.909650000000     0.208450000000     0.765510000000     0.287437   
C470     C      0.826350000000     0.304950000000     0.293820000000     0.292087   
C471     C      0.846650000000     0.305000000000     0.724880000000     0.291946   
C472     C      0.763410000000     0.208460000000     0.753180000000     0.287369   
C473     C      0.746470000000     0.417000000000     0.416690000000     0.288713   
C474     C      0.642580000000     0.519010000000     0.436250000000     0.289313   
C475     C      0.642560000000     0.375480000000     0.457590000000     0.2894     
C476     C      0.746450000000     0.477320000000     0.477090000000     0.288657   
C477     C      0.642590000000     0.519030000000     0.686250000000     0.289481   
C478     C      0.746490000000     0.417020000000     0.666690000000     0.288551   
C479     C      0.746430000000     0.477350000000     0.727100000000     0.288508   
C480     C      0.642560000000     0.375500000000     0.707590000000     0.28955    
C481     C      0.326340000000     0.804950000000     0.418820000000     0.292294   
C482     C      0.409640000000     0.708450000000     0.390510000000     0.287541   
C483     C      0.263400000000     0.708460000000     0.378190000000     0.287501   
C484     C      0.346630000000     0.805000000000     0.349890000000     0.292287   
C485     C      0.326360000000     0.804980000000     0.668820000000     0.292092   
C486     C      0.409650000000     0.708470000000     0.640500000000     0.287533   
C487     C      0.263420000000     0.708480000000     0.628180000000     0.287445   
C488     C      0.346640000000     0.805030000000     0.599880000000     0.292228   
C489     C      0.530510000000     0.019120000000     0.457520000000     0.289277   
C490     C      0.426590000000     0.917190000000     0.477060000000     0.28843    
C491     C      0.426720000000     0.977510000000     0.416650000000     0.288662   
C492     C      0.530580000000     0.875590000000     0.436180000000     0.289349   
C493     C      0.426610000000     0.917160000000     0.727060000000     0.288668   
C494     C      0.530510000000     0.019100000000     0.707520000000     0.289401   
C495     C      0.530570000000     0.875570000000     0.686180000000     0.289331   
C496     C      0.426710000000     0.977490000000     0.666660000000     0.288597   
C497     C      0.326550000000     0.088850000000     0.474890000000     0.292351   
C498     C      0.409690000000     0.185440000000     0.503160000000     0.287454   
C499     C      0.263510000000     0.185450000000     0.515540000000     0.28739    
C500     C      0.346720000000     0.088890000000     0.543830000000     0.292164   
C501     C      0.346720000000     0.088920000000     0.293820000000     0.292199   
C502     C      0.263500000000     0.185480000000     0.765530000000     0.287478   
C503     C      0.409680000000     0.185470000000     0.753160000000     0.287354   
C504     C      0.326530000000     0.088880000000     0.724880000000     0.29193    
C505     C      0.142600000000     0.019020000000     0.311250000000     0.289426   
C506     C      0.246500000000     0.917010000000     0.791690000000     0.288396   
C507     C      0.246460000000     0.977330000000     0.352090000000     0.288393   
C508     C      0.142580000000     0.875490000000     0.332590000000     0.289482   
C509     C      0.142550000000     0.875490000000     0.582590000000     0.289532   
C510     C      0.246430000000     0.977340000000     0.602090000000     0.288595   
C511     C      0.246470000000     0.917000000000     0.541690000000     0.288415   
C512     C      0.142570000000     0.019020000000     0.561240000000     0.289301   
C513     C      0.281740000000     0.052840000000     0.640560000000    -0.0576419  
C514     C      0.295120000000     0.019760000000     0.653140000000     0.0222383  
C515     C      0.295140000000     0.972740000000     0.648210000000    -0.0543408  
C516     C      0.280960000000     0.958970000000     0.631270000000     0.0117915  
C517     C      0.266210000000     0.992010000000     0.618990000000    -0.0736478  
C518     C      0.267300000000     0.039100000000     0.623710000000     0.0112621  
C519     C      0.306850000000     0.034430000000     0.671600000000     0.0230991  
C520     C      0.329260000000     0.075130000000     0.674180000000    -0.0554749  
C521     C      0.336590000000     0.091810000000     0.691530000000     0.0159494  
C522     C      0.321560000000     0.068290000000     0.706740000000    -0.0724868  
C523     C      0.300420000000     0.026660000000     0.704260000000     0.0151068  
C524     C      0.293170000000     0.009830000000     0.686830000000    -0.0555625  
C525     C      0.293190000000     0.009810000000     0.436830000000    -0.0555787  
C526     C      0.306880000000     0.034400000000     0.421610000000     0.0231473  
C527     C      0.329300000000     0.075090000000     0.424180000000    -0.055504   
C528     C      0.336620000000     0.091770000000     0.441540000000     0.0160293  
C529     C      0.321590000000     0.068260000000     0.456750000000    -0.0726483  
C530     C      0.300440000000     0.026630000000     0.454260000000     0.0151848  
C531     C      0.295150000000     0.019740000000     0.403140000000     0.0222797  
C532     C      0.295170000000     0.972710000000     0.398220000000    -0.0544185  
C533     C      0.280990000000     0.958950000000     0.381270000000     0.0117639  
C534     C      0.266240000000     0.991990000000     0.369000000000    -0.0735246  
C535     C      0.267340000000     0.039080000000     0.373720000000     0.0112874  
C536     C      0.281780000000     0.052820000000     0.390560000000    -0.0576799  
C537     C      0.378060000000     0.972850000000     0.620530000000    -0.0543508  
C538     C      0.378080000000     0.019870000000     0.615590000000     0.0222405  
C539     C      0.391430000000     0.052960000000     0.628160000000    -0.0577137  
C540     C      0.405860000000     0.039230000000     0.645010000000     0.011305   
C541     C      0.406950000000     0.992150000000     0.649750000000    -0.0736655  
C542     C      0.392220000000     0.959100000000     0.637470000000     0.0118005  
C543     C      0.366360000000     0.034500000000     0.597120000000     0.0231393  
C544     C      0.380110000000     0.009910000000     0.581900000000    -0.0556497  
C545     C      0.372870000000     0.026710000000     0.564470000000     0.0152283  
C546     C      0.351680000000     0.068330000000     0.561970000000    -0.0727484  
C547     C      0.336580000000     0.091850000000     0.577170000000     0.0160511  
C548     C      0.343890000000     0.075190000000     0.594530000000    -0.0555707  
C549     C      0.391460000000     0.052980000000     0.378150000000    -0.0577699  
C550     C      0.378100000000     0.019890000000     0.365580000000     0.0223232  
C551     C      0.378070000000     0.972880000000     0.370520000000    -0.0544764  
C552     C      0.392240000000     0.959130000000     0.387470000000     0.0119135  
C553     C      0.406980000000     0.992170000000     0.399740000000    -0.0737871  
C554     C      0.405890000000     0.039250000000     0.395000000000     0.0113792  
C555     C      0.366370000000     0.034530000000     0.347110000000     0.0230724  
C556     C      0.343910000000     0.075220000000     0.344520000000    -0.0554718  
C557     C      0.336590000000     0.091880000000     0.327160000000     0.0159953  
C558     C      0.351680000000     0.068350000000     0.311960000000    -0.0726904  
C559     C      0.372870000000     0.026730000000     0.314460000000     0.0151861  
C560     C      0.380110000000     0.009930000000     0.331890000000    -0.055604   
C561     C      0.329220000000     0.818880000000     0.719510000000    -0.0554588  
C562     C      0.306840000000     0.859630000000     0.722110000000     0.0231006  
C563     C      0.293150000000     0.884210000000     0.706890000000    -0.0555968  
C564     C      0.300350000000     0.867330000000     0.689460000000     0.015169   
C565     C      0.321430000000     0.825620000000     0.686960000000    -0.0726141  
C566     C      0.336480000000     0.802110000000     0.702150000000     0.0159319  
C567     C      0.295140000000     0.874370000000     0.740590000000     0.0221907  
C568     C      0.281790000000     0.841340000000     0.753210000000    -0.0576552  
C569     C      0.267370000000     0.855160000000     0.770070000000     0.0111906  
C570     C      0.266270000000     0.902270000000     0.774760000000    -0.0734767  
C571     C      0.281000000000     0.935250000000     0.762450000000     0.0117111  
C572     C      0.295180000000     0.921400000000     0.745490000000    -0.0542408  
C573     C      0.377850000000     0.921540000000     0.523240000000    -0.0542982  
C574     C      0.377880000000     0.874490000000     0.528130000000     0.0222426  
C575     C      0.391250000000     0.841480000000     0.515510000000    -0.0576797  
C576     C      0.405680000000     0.855320000000     0.498650000000     0.011236   
C577     C      0.406790000000     0.902440000000     0.493970000000    -0.073575   
C578     C      0.392030000000     0.935410000000     0.506290000000     0.0117493  
C579     C      0.366180000000     0.859730000000     0.546600000000     0.0231036  
C580     C      0.379810000000     0.884310000000     0.561830000000    -0.0555764  
C581     C      0.372600000000     0.867400000000     0.579260000000     0.0152224  
C582     C      0.351560000000     0.825690000000     0.581750000000    -0.0727041  
C583     C      0.336580000000     0.802180000000     0.566550000000     0.0160111  
C584     C      0.343840000000     0.818960000000     0.549190000000    -0.0555135  
C585     C      0.293130000000     0.884190000000     0.456900000000    -0.0556736  
C586     C      0.306810000000     0.859610000000     0.472110000000     0.0231241  
C587     C      0.329190000000     0.818840000000     0.469510000000    -0.055457   
C588     C      0.336440000000     0.802080000000     0.452150000000     0.016012   
C589     C      0.321410000000     0.825590000000     0.436960000000    -0.0727244  
C590     C      0.300330000000     0.867300000000     0.439470000000     0.0152697  
C591     C      0.295120000000     0.874340000000     0.490590000000     0.022225   
C592     C      0.295160000000     0.921380000000     0.495490000000    -0.0543478  
C593     C      0.280980000000     0.935230000000     0.512450000000     0.0117998  
C594     C      0.266240000000     0.902260000000     0.524770000000    -0.0736151  
C595     C      0.267330000000     0.855150000000     0.520070000000     0.0112576  
C596     C      0.281750000000     0.841320000000     0.503210000000    -0.0576947  
C597     C      0.391270000000     0.841460000000     0.765510000000    -0.0576517  
C598     C      0.377900000000     0.874470000000     0.778140000000     0.0221889  
C599     C      0.377860000000     0.921520000000     0.273250000000    -0.0542868  
C600     C      0.392040000000     0.935390000000     0.756300000000     0.0117331  
C601     C      0.406810000000     0.902420000000     0.743980000000    -0.0735495  
C602     C      0.405710000000     0.855300000000     0.748660000000     0.0112493  
C603     C      0.366180000000     0.859710000000     0.296610000000     0.0231159  
C604     C      0.343850000000     0.818940000000     0.299200000000    -0.0554578  
C605     C      0.336590000000     0.802160000000     0.316550000000     0.016019   
C606     C      0.351560000000     0.825660000000     0.331750000000    -0.0726492  
C607     C      0.372590000000     0.867380000000     0.329260000000     0.01527    
C608     C      0.379810000000     0.884290000000     0.311840000000    -0.0556361  
C609     C      0.585250000000     0.604850000000     0.657190000000    -0.0574745  
C610     C      0.548550000000     0.608020000000     0.666590000000     0.0213551  
C611     C      0.544370000000     0.584730000000     0.683140000000    -0.0567715  
C612     C      0.575590000000     0.557310000000     0.689840000000     0.0123686  
C613     C      0.611650000000     0.552360000000     0.680080000000    -0.0721012  
C614     C      0.616510000000     0.577110000000     0.663850000000     0.0114845  
C615     C      0.513790000000     0.633440000000     0.658860000000     0.0208193  
C616     C      0.518110000000     0.678530000000     0.651940000000    -0.0556987  
C617     C      0.484460000000     0.702850000000     0.645530000000     0.0114372  
C618     C      0.446080000000     0.682180000000     0.645760000000    -0.0713106  
C619     C      0.442190000000     0.636540000000     0.652140000000     0.0121785  
C620     C      0.475610000000     0.612550000000     0.658660000000    -0.0559556  
C621     C      0.518150000000     0.215660000000     0.741770000000    -0.0557487  
C622     C      0.513780000000     0.260760000000     0.734870000000     0.0208462  
C623     C      0.475540000000     0.281570000000     0.735050000000    -0.05601    
C624     C      0.442130000000     0.257480000000     0.741540000000     0.0122022  
C625     C      0.446080000000     0.211840000000     0.747910000000    -0.07129    
C626     C      0.484520000000     0.191250000000     0.748140000000     0.0114906  
C627     C      0.548550000000     0.286290000000     0.727170000000     0.0213905  
C628     C      0.585140000000     0.289520000000     0.736590000000    -0.0574993  
C629     C      0.616400000000     0.317340000000     0.729960000000     0.0115279  
C630     C      0.611630000000     0.342130000000     0.713740000000    -0.0721954  
C631     C      0.575680000000     0.337130000000     0.703960000000     0.0124645  
C632     C      0.544460000000     0.309630000000     0.710630000000    -0.0568322  
C633     C      0.518090000000     0.678520000000     0.401950000000    -0.0557411  
C634     C      0.513780000000     0.633420000000     0.408860000000     0.020859   
C635     C      0.475600000000     0.612520000000     0.408660000000    -0.0560287  
C636     C      0.442190000000     0.636520000000     0.402140000000     0.0122544  
C637     C      0.446070000000     0.682160000000     0.395760000000    -0.0713845  
C638     C      0.484450000000     0.702830000000     0.395540000000     0.0115083  
C639     C      0.548540000000     0.608000000000     0.416590000000     0.0213628  
C640     C      0.585240000000     0.604840000000     0.407200000000    -0.0575063  
C641     C      0.616510000000     0.577110000000     0.413860000000     0.0114934  
C642     C      0.611640000000     0.552330000000     0.430080000000    -0.072073   
C643     C      0.575570000000     0.557270000000     0.439840000000     0.0123634  
C644     C      0.544350000000     0.584690000000     0.433140000000    -0.0567621  
C645     C      0.544480000000     0.309590000000     0.460630000000    -0.0567474  
C646     C      0.548560000000     0.286270000000     0.477180000000     0.0213393  
C647     C      0.585150000000     0.289510000000     0.486600000000    -0.0574695  
C648     C      0.616400000000     0.317330000000     0.479970000000     0.0114565  
C649     C      0.611630000000     0.342110000000     0.463740000000    -0.0721002  
C650     C      0.575690000000     0.337090000000     0.453960000000     0.0124154  
C651     C      0.513790000000     0.260740000000     0.484870000000     0.0208623  
C652     C      0.475550000000     0.281540000000     0.485050000000    -0.0560227  
C653     C      0.442140000000     0.257450000000     0.491540000000     0.0122358  
C654     C      0.446090000000     0.211810000000     0.497920000000    -0.0713654  
C655     C      0.484530000000     0.191240000000     0.498160000000     0.0115214  
C656     C      0.518160000000     0.215650000000     0.491780000000    -0.0557228  
C657     C      0.018110000000     0.178520000000     0.776940000000    -0.0555315  
C658     C      0.013800000000     0.133430000000     0.783860000000     0.0210231  
C659     C      0.975610000000     0.112530000000     0.283670000000    -0.0562031  
C660     C      0.942200000000     0.136520000000     0.277150000000     0.0121781  
C661     C      0.946080000000     0.182160000000     0.770760000000    -0.0713373  
C662     C      0.984470000000     0.202830000000     0.770540000000     0.0112524  
C663     C      0.048560000000     0.108010000000     0.291590000000     0.0213761  
C664     C      0.085260000000     0.104840000000     0.782190000000    -0.0574736  
C665     C      0.116520000000     0.077110000000     0.788850000000     0.0114568  
C666     C      0.111660000000     0.052350000000     0.305080000000    -0.0721372  
C667     C      0.075600000000     0.057300000000     0.314840000000     0.0124788  
C668     C      0.044370000000     0.084700000000     0.308150000000    -0.0568202  
C669     C      0.628690000000     0.084780000000     0.710580000000    -0.0567398  
C670     C      0.624540000000     0.108040000000     0.727150000000     0.0212882  
C671     C      0.587880000000     0.104840000000     0.736570000000    -0.0573931  
C672     C      0.556610000000     0.077120000000     0.729920000000     0.0114043  
C673     C      0.561450000000     0.052400000000     0.713680000000    -0.0720486  
C674     C      0.597470000000     0.057380000000     0.703900000000     0.0123782  
C675     C      0.659300000000     0.133460000000     0.734860000000     0.0208765  
C676     C      0.697510000000     0.112570000000     0.735020000000    -0.0560467  
C677     C      0.730910000000     0.136560000000     0.741530000000     0.0122516  
C678     C      0.727000000000     0.182180000000     0.747930000000    -0.0713417  
C679     C      0.688590000000     0.202830000000     0.748190000000     0.0114814  
C680     C      0.654960000000     0.178520000000     0.741800000000    -0.0557188  
C681     C      0.829190000000     0.318840000000     0.344510000000    -0.0554961  
C682     C      0.806820000000     0.359610000000     0.347110000000     0.0230917  
C683     C      0.793140000000     0.384190000000     0.331890000000    -0.0555979  
C684     C      0.800340000000     0.367300000000     0.314460000000     0.0151876  
C685     C      0.821420000000     0.325590000000     0.311960000000    -0.0726462  
C686     C      0.836450000000     0.302080000000     0.327150000000     0.0159871  
C687     C      0.795120000000     0.374340000000     0.365590000000     0.0222515  
C688     C      0.781750000000     0.341320000000     0.378200000000    -0.0577459  
C689     C      0.767330000000     0.355150000000     0.395060000000     0.0113237  
C690     C      0.766240000000     0.402250000000     0.399760000000    -0.0735966  
C691     C      0.780980000000     0.435230000000     0.387440000000     0.0117935  
C692     C      0.795160000000     0.421380000000     0.370490000000    -0.0543082  
C693     C      0.975590000000     0.112540000000     0.533660000000    -0.056252   
C694     C      0.013780000000     0.133440000000     0.533850000000     0.0210399  
C695     C      0.018090000000     0.178530000000     0.526940000000    -0.0555369  
C696     C      0.984450000000     0.202850000000     0.520540000000     0.0112428  
C697     C      0.946060000000     0.182180000000     0.520760000000    -0.0713015  
C698     C      0.942180000000     0.136540000000     0.527140000000     0.0122309  
C699     C      0.048540000000     0.108020000000     0.541580000000     0.0213171  
C700     C      0.044350000000     0.084710000000     0.558140000000    -0.0567127  
C701     C      0.075570000000     0.057300000000     0.564840000000     0.012399   
C702     C      0.111630000000     0.052350000000     0.555080000000    -0.0720659  
C703     C      0.116500000000     0.077120000000     0.538850000000     0.0114783  
C704     C      0.085240000000     0.104850000000     0.532190000000    -0.0574932  
C705     C      0.654950000000     0.178530000000     0.491820000000    -0.0557229  
C706     C      0.659290000000     0.133470000000     0.484870000000     0.0208637  
C707     C      0.697510000000     0.112590000000     0.485020000000    -0.0560568  
C708     C      0.730910000000     0.136580000000     0.491530000000     0.0122382  
C709     C      0.726990000000     0.182190000000     0.497940000000    -0.0713589  
C710     C      0.688580000000     0.202840000000     0.498210000000     0.0114996  
C711     C      0.624540000000     0.108050000000     0.477160000000     0.0213052  
C712     C      0.587880000000     0.104840000000     0.486580000000    -0.0574047  
C713     C      0.556610000000     0.077130000000     0.479930000000     0.0113973  
C714     C      0.561440000000     0.052420000000     0.463680000000    -0.0720313  
C715     C      0.597460000000     0.057410000000     0.453900000000     0.01239    
C716     C      0.628680000000     0.084810000000     0.460590000000    -0.0567388  
C717     C      0.793140000000     0.384210000000     0.581900000000    -0.0556188  
C718     C      0.806830000000     0.359630000000     0.597110000000     0.0231124  
C719     C      0.829210000000     0.318870000000     0.594510000000    -0.0554842  
C720     C      0.836470000000     0.302110000000     0.577150000000     0.0159562  
C721     C      0.821420000000     0.325620000000     0.561960000000    -0.072656   
C722     C      0.800340000000     0.367320000000     0.564470000000     0.0152049  
C723     C      0.795130000000     0.374370000000     0.615590000000     0.0222513  
C724     C      0.795170000000     0.421410000000     0.620490000000    -0.0543971  
C725     C      0.781000000000     0.435250000000     0.637450000000     0.0118523  
C726     C      0.766260000000     0.402280000000     0.649770000000    -0.0736954  
C727     C      0.767360000000     0.355170000000     0.645070000000     0.0113114  
C728     C      0.781780000000     0.341350000000     0.628210000000    -0.0576972  
C729     C      0.587970000000     0.789510000000     0.657170000000    -0.0574764  
C730     C      0.624600000000     0.786310000000     0.666570000000     0.0213776  
C731     C      0.628710000000     0.809680000000     0.683100000000    -0.056812   
C732     C      0.597500000000     0.837190000000     0.689780000000     0.0124717  
C733     C      0.561510000000     0.842180000000     0.680030000000    -0.0721356  
C734     C      0.556700000000     0.817350000000     0.663820000000     0.0114755  
C735     C      0.659360000000     0.760770000000     0.658850000000     0.0208152  
C736     C      0.655030000000     0.715650000000     0.651970000000    -0.0557043  
C737     C      0.688670000000     0.691240000000     0.645580000000     0.011498   
C738     C      0.727080000000     0.711830000000     0.645780000000    -0.0713107  
C739     C      0.731000000000     0.757500000000     0.652130000000     0.0121586  
C740     C      0.697580000000     0.781590000000     0.658640000000    -0.0559758  
C741     C      0.975540000000     0.781550000000     0.610050000000    -0.0562241  
C742     C      0.013780000000     0.760750000000     0.609870000000     0.0209995  
C743     C      0.018150000000     0.715650000000     0.616780000000    -0.0555182  
C744     C      0.984520000000     0.691240000000     0.623150000000     0.0112226  
C745     C      0.946080000000     0.711820000000     0.622910000000    -0.0712134  
C746     C      0.942130000000     0.757460000000     0.616550000000     0.0121823  
C747     C      0.048540000000     0.786280000000     0.602170000000     0.021377   
C748     C      0.044460000000     0.809610000000     0.585630000000    -0.0567599  
C749     C      0.075670000000     0.837110000000     0.578960000000     0.0124541  
C750     C      0.111620000000     0.842120000000     0.588740000000    -0.0722011  
C751     C      0.116390000000     0.817340000000     0.604960000000     0.0115976  
C752     C      0.085140000000     0.789520000000     0.611600000000    -0.0575765  
C753     C      0.795160000000     0.472720000000     0.523210000000    -0.0543588  
C754     C      0.795140000000     0.519740000000     0.528130000000     0.0222644  
C755     C      0.781770000000     0.552820000000     0.515560000000    -0.0577053  
C756     C      0.767330000000     0.539070000000     0.498710000000     0.0112665  
C757     C      0.766230000000     0.491980000000     0.493990000000    -0.0736629  
C758     C      0.780980000000     0.458950000000     0.506270000000     0.011825   
C759     C      0.806870000000     0.534400000000     0.546600000000     0.0231352  
C760     C      0.793180000000     0.509810000000     0.561830000000    -0.0556826  
C761     C      0.800430000000     0.526630000000     0.579250000000     0.0152715  
C762     C      0.821570000000     0.568270000000     0.581740000000    -0.0727104  
C763     C      0.836610000000     0.591780000000     0.566530000000     0.0160434  
C764     C      0.829290000000     0.575100000000     0.549180000000    -0.0555274  
C765     C      0.655040000000     0.715660000000     0.401980000000    -0.055712   
C766     C      0.659370000000     0.760790000000     0.408860000000     0.020828   
C767     C      0.697580000000     0.781610000000     0.408630000000    -0.0559481  
C768     C      0.731000000000     0.757520000000     0.402130000000     0.0121733  
C769     C      0.727090000000     0.711850000000     0.395790000000    -0.0713074  
C770     C      0.688680000000     0.691250000000     0.395590000000     0.0114852  
C771     C      0.624610000000     0.786330000000     0.416570000000     0.021324   
C772     C      0.587970000000     0.789510000000     0.407180000000    -0.0574167  
C773     C      0.556710000000     0.817350000000     0.413820000000     0.0114263  
C774     C      0.561520000000     0.842200000000     0.430030000000    -0.0720756  
C775     C      0.597510000000     0.837230000000     0.439790000000     0.0123298  
C776     C      0.628730000000     0.809720000000     0.433100000000    -0.0567095  
C777     C      0.018170000000     0.715660000000     0.366770000000    -0.055566   
C778     C      0.013800000000     0.760760000000     0.359870000000     0.0210555  
C779     C      0.975550000000     0.781570000000     0.360050000000    -0.0562976  
C780     C      0.942150000000     0.757480000000     0.366550000000     0.0123174  
C781     C      0.946090000000     0.711840000000     0.372920000000    -0.0713818  
C782     C      0.984530000000     0.691260000000     0.373150000000     0.0113012  
C783     C      0.048560000000     0.786290000000     0.352170000000     0.0213205  
C784     C      0.085160000000     0.789520000000     0.361590000000    -0.0574799  
C785     C      0.116410000000     0.817340000000     0.354960000000     0.0115499  
C786     C      0.111640000000     0.842120000000     0.338740000000    -0.0721042  
C787     C      0.075700000000     0.837110000000     0.328950000000     0.012383   
C788     C      0.044480000000     0.809620000000     0.335620000000    -0.0567344  
C789     C      0.781750000000     0.552840000000     0.765560000000    -0.0576835  
C790     C      0.795120000000     0.519760000000     0.778140000000     0.0222494  
C791     C      0.795150000000     0.472740000000     0.273220000000    -0.0543839  
C792     C      0.780970000000     0.458970000000     0.756280000000     0.0118033  
C793     C      0.766210000000     0.492010000000     0.744000000000    -0.0736191  
C794     C      0.767310000000     0.539100000000     0.748720000000     0.0112661  
C795     C      0.806860000000     0.534430000000     0.296610000000     0.0231727  
C796     C      0.829270000000     0.575130000000     0.299180000000    -0.0555332  
C797     C      0.836600000000     0.591810000000     0.316540000000     0.0160408  
C798     C      0.821580000000     0.568290000000     0.331750000000    -0.0727623  
C799     C      0.800440000000     0.526650000000     0.329260000000     0.0153154  
C800     C      0.793190000000     0.509830000000     0.311840000000    -0.0557017  
C801     C      0.128690000000     0.584800000000     0.585590000000    -0.0567609  
C802     C      0.124540000000     0.608050000000     0.602150000000     0.0213754  
C803     C      0.087890000000     0.604840000000     0.611580000000    -0.057487   
C804     C      0.056620000000     0.577130000000     0.604930000000     0.011431   
C805     C      0.061460000000     0.552420000000     0.588680000000    -0.0720084  
C806     C      0.097480000000     0.557400000000     0.578900000000     0.0123644  
C807     C      0.159300000000     0.633470000000     0.609870000000     0.0208198  
C808     C      0.197520000000     0.612600000000     0.610020000000    -0.0559916  
C809     C      0.230920000000     0.636580000000     0.616530000000     0.0121844  
C810     C      0.227000000000     0.682200000000     0.622940000000    -0.0713041  
C811     C      0.188590000000     0.702850000000     0.623200000000     0.0114616  
C812     C      0.154960000000     0.678540000000     0.616810000000    -0.0556898  
C813     C      0.197590000000     0.281600000000     0.533630000000    -0.0560038  
C814     C      0.159370000000     0.260780000000     0.533850000000     0.0208334  
C815     C      0.155040000000     0.215650000000     0.526980000000    -0.0557208  
C816     C      0.188680000000     0.191230000000     0.520590000000     0.0114823  
C817     C      0.227090000000     0.211830000000     0.520790000000    -0.0713117  
C818     C      0.231000000000     0.257500000000     0.527130000000     0.012233   
C819     C      0.124610000000     0.286310000000     0.541570000000     0.0214089  
C820     C      0.128730000000     0.309700000000     0.558100000000    -0.0568001  
C821     C      0.097510000000     0.337210000000     0.564780000000     0.0124663  
C822     C      0.061520000000     0.342190000000     0.555020000000    -0.072172   
C823     C      0.056720000000     0.317350000000     0.538820000000     0.0116165  
C824     C      0.087980000000     0.289510000000     0.532170000000    -0.0575814  
C825     C      0.891280000000     0.341460000000     0.640510000000    -0.0577491  
C826     C      0.877900000000     0.374470000000     0.653130000000     0.0223124  
C827     C      0.877860000000     0.421520000000     0.648250000000    -0.0544424  
C828     C      0.892050000000     0.435390000000     0.631300000000     0.0118233  
C829     C      0.906810000000     0.402420000000     0.618970000000    -0.0736368  
C830     C      0.905710000000     0.355310000000     0.623650000000     0.0112956  
C831     C      0.866190000000     0.359710000000     0.671610000000     0.0230971  
C832     C      0.843870000000     0.318940000000     0.674190000000    -0.055414   
C833     C      0.836600000000     0.302150000000     0.691550000000     0.015927   
C834     C      0.851570000000     0.325660000000     0.706750000000    -0.0726135  
C835     C      0.872600000000     0.367380000000     0.704260000000     0.0152004  
C836     C      0.879810000000     0.384290000000     0.686830000000    -0.0556034  
C837     C      0.891460000000     0.552980000000     0.503160000000    -0.0577106  
C838     C      0.878100000000     0.519890000000     0.490590000000     0.0222331  
C839     C      0.878080000000     0.472880000000     0.495520000000    -0.0543846  
C840     C      0.892240000000     0.459130000000     0.512470000000     0.0118072  
C841     C      0.906980000000     0.492170000000     0.524740000000    -0.0736027  
C842     C      0.905890000000     0.539250000000     0.520010000000     0.0112376  
C843     C      0.866380000000     0.534530000000     0.472120000000     0.0231076  
C844     C      0.843920000000     0.575220000000     0.469530000000    -0.055489   
C845     C      0.836600000000     0.591880000000     0.452170000000     0.015996   
C846     C      0.851690000000     0.568350000000     0.436970000000    -0.0727389  
C847     C      0.872880000000     0.526730000000     0.439470000000     0.0152167  
C848     C      0.880120000000     0.509930000000     0.456900000000    -0.0556886  
C849     C      0.087870000000     0.604840000000     0.361580000000    -0.0574787  
C850     C      0.124530000000     0.608040000000     0.352150000000     0.0213407  
C851     C      0.128670000000     0.584790000000     0.335590000000    -0.0567161  
C852     C      0.097450000000     0.557400000000     0.328900000000     0.0123915  
C853     C      0.061430000000     0.552410000000     0.338680000000    -0.0719817  
C854     C      0.056600000000     0.577130000000     0.354930000000     0.0114218  
C855     C      0.159280000000     0.633460000000     0.359870000000     0.0208821  
C856     C      0.154940000000     0.678520000000     0.366810000000    -0.0557563  
C857     C      0.188580000000     0.702830000000     0.373200000000     0.0115229  
C858     C      0.226990000000     0.682180000000     0.372940000000    -0.0713776  
C859     C      0.230900000000     0.636560000000     0.366530000000     0.0122746  
C860     C      0.197500000000     0.612580000000     0.360020000000    -0.0560451  
C861     C      0.197570000000     0.281610000000     0.283640000000    -0.0559868  
C862     C      0.159360000000     0.260790000000     0.783850000000     0.0208849  
C863     C      0.155020000000     0.215670000000     0.776980000000    -0.0557422  
C864     C      0.188660000000     0.191250000000     0.770590000000     0.0115041  
C865     C      0.227080000000     0.211850000000     0.770780000000    -0.0713353  
C866     C      0.230990000000     0.257520000000     0.277130000000     0.0121797  
C867     C      0.124590000000     0.286320000000     0.291570000000     0.0213491  
C868     C      0.128710000000     0.309700000000     0.308110000000    -0.0567811  
C869     C      0.097490000000     0.337210000000     0.314790000000     0.0124177  
C870     C      0.061500000000     0.342190000000     0.305030000000    -0.0721315  
C871     C      0.056700000000     0.317360000000     0.788820000000     0.0115253  
C872     C      0.087960000000     0.289520000000     0.782180000000    -0.0574486  
C873     C      0.891240000000     0.341480000000     0.390510000000    -0.0576979  
C874     C      0.877870000000     0.374500000000     0.403130000000     0.0222687  
C875     C      0.877840000000     0.421550000000     0.398250000000    -0.0543697  
C876     C      0.892030000000     0.435410000000     0.381300000000     0.0117942  
C877     C      0.906780000000     0.402440000000     0.368970000000    -0.0736443  
C878     C      0.905670000000     0.355320000000     0.373650000000     0.0112696  
C879     C      0.866160000000     0.359740000000     0.421610000000     0.0230953  
C880     C      0.843830000000     0.318970000000     0.424200000000    -0.0554392  
C881     C      0.836570000000     0.302190000000     0.441550000000     0.0159639  
C882     C      0.851550000000     0.325690000000     0.456750000000    -0.0725574  
C883     C      0.872590000000     0.367410000000     0.454260000000     0.0151544  
C884     C      0.879800000000     0.384310000000     0.436830000000    -0.0555805  
C885     C      0.880100000000     0.509900000000     0.706890000000    -0.0557255  
C886     C      0.866350000000     0.534500000000     0.722110000000     0.0231261  
C887     C      0.843880000000     0.575180000000     0.719520000000    -0.0554653  
C888     C      0.836570000000     0.591850000000     0.702160000000     0.0159772  
C889     C      0.851660000000     0.568320000000     0.686960000000    -0.0727201  
C890     C      0.872860000000     0.526710000000     0.689460000000     0.0152322  
C891     C      0.878070000000     0.519870000000     0.740580000000     0.0221873  
C892     C      0.878060000000     0.472860000000     0.745520000000    -0.054333   
C893     C      0.892220000000     0.459110000000     0.762470000000     0.011769   
C894     C      0.906950000000     0.492150000000     0.774740000000    -0.0735442  
C895     C      0.905850000000     0.539230000000     0.770010000000     0.01115    
C896     C      0.891420000000     0.552960000000     0.753150000000    -0.0576515  
Cd1      Cd     0.974840000000     0.447380000000     0.821850000000     0.50697    
Cd2      Cd     0.974870000000     0.447380000000     0.071850000000     0.506982   
Cd3      Cd     0.836620000000     0.633890000000     0.884350000000     0.508148   
Cd4      Cd     0.836610000000     0.633860000000     0.134340000000     0.50814    
Cd5      Cd     0.836490000000     0.259970000000     0.009350000000     0.507547   
Cd6      Cd     0.836510000000     0.259940000000     0.259340000000     0.50812    
Cd7      Cd     0.698260000000     0.447220000000     0.946910000000     0.507148   
Cd8      Cd     0.698270000000     0.447250000000     0.196910000000     0.507152   
Cd9      Cd     0.336500000000     0.759940000000     0.884350000000     0.508152   
Cd10     Cd     0.336510000000     0.759970000000     0.134340000000     0.508111   
Cd11     Cd     0.474850000000     0.947390000000     0.946850000000     0.507164   
Cd12     Cd     0.474850000000     0.947370000000     0.196860000000     0.507119   
Cd13     Cd     0.336620000000     0.133860000000     0.009350000000     0.507558   
Cd14     Cd     0.336610000000     0.133890000000     0.259350000000     0.50815    
Cd15     Cd     0.198280000000     0.947230000000     0.821910000000     0.507142   
Cd16     Cd     0.198250000000     0.947240000000     0.071910000000     0.507144   
Cd17     Cd     0.974840000000     0.447380000000     0.321850000000     0.506981   
Cd18     Cd     0.974870000000     0.447380000000     0.571850000000     0.507001   
Cd19     Cd     0.836620000000     0.633890000000     0.384350000000     0.508154   
Cd20     Cd     0.836610000000     0.633860000000     0.634350000000     0.508167   
Cd21     Cd     0.836500000000     0.259970000000     0.509350000000     0.508142   
Cd22     Cd     0.836510000000     0.259940000000     0.759340000000     0.508094   
Cd23     Cd     0.698260000000     0.447230000000     0.446910000000     0.507125   
Cd24     Cd     0.698260000000     0.447250000000     0.696910000000     0.507174   
Cd25     Cd     0.336490000000     0.759940000000     0.384350000000     0.508147   
Cd26     Cd     0.336510000000     0.759970000000     0.634350000000     0.508115   
Cd27     Cd     0.474850000000     0.947390000000     0.446850000000     0.507109   
Cd28     Cd     0.474850000000     0.947370000000     0.696860000000     0.507088   
Cd29     Cd     0.336620000000     0.133860000000     0.509350000000     0.508163   
Cd30     Cd     0.336610000000     0.133890000000     0.759350000000     0.508098   
Cd31     Cd     0.198280000000     0.947240000000     0.321910000000     0.507152   
Cd32     Cd     0.198250000000     0.947240000000     0.571910000000     0.507161   
H1       H      0.306110000000     0.946630000000     0.157470000000     0.0553054  
H2       H      0.280620000000     0.922380000000     0.127990000000     0.0565389  
H3       H      0.256070000000     0.065350000000     0.114550000000     0.0441509  
H4       H      0.280940000000     0.089330000000     0.143980000000     0.0482351  
H5       H      0.340560000000     0.094620000000     0.162750000000     0.0473154  
H6       H      0.353360000000     0.123780000000     0.192990000000     0.0477017  
H7       H      0.288170000000     0.008070000000     0.215700000000     0.0395652  
H8       H      0.275270000000     0.978760000000     0.185250000000     0.0471071  
H9       H      0.340600000000     0.094580000000     0.912750000000     0.047335   
H10      H      0.353400000000     0.123740000000     0.943000000000     0.0478017  
H11      H      0.288180000000     0.008050000000     0.965700000000     0.0396936  
H12      H      0.275280000000     0.978730000000     0.935250000000     0.0471372  
H13      H      0.306120000000     0.946600000000     0.907470000000     0.0553438  
H14      H      0.280630000000     0.922360000000     0.878000000000     0.0565455  
H15      H      0.256110000000     0.065340000000     0.864550000000     0.0441491  
H16      H      0.280990000000     0.089310000000     0.893980000000     0.0482623  
H17      H      0.392210000000     0.089440000000     0.124730000000     0.0482198  
H18      H      0.417060000000     0.065490000000     0.154170000000     0.0441131  
H19      H      0.392570000000     0.922520000000     0.140760000000     0.0564565  
H20      H      0.367110000000     0.946740000000     0.111270000000     0.0553156  
H21      H      0.398050000000     0.978840000000     0.083490000000     0.0470822  
H22      H      0.385180000000     0.008120000000     0.053030000000     0.0394671  
H23      H      0.319750000000     0.123810000000     0.075700000000     0.0476562  
H24      H      0.332530000000     0.094670000000     0.105950000000     0.0473454  
H25      H      0.367120000000     0.946770000000     0.861270000000     0.0553142  
H26      H      0.392580000000     0.922540000000     0.890760000000     0.0564293  
H27      H      0.417100000000     0.065510000000     0.904160000000     0.0441309  
H28      H      0.392240000000     0.089460000000     0.874720000000     0.0482498  
H29      H      0.332550000000     0.094700000000     0.855950000000     0.0472989  
H30      H      0.319760000000     0.123840000000     0.825690000000     0.0477149  
H31      H      0.385170000000     0.008140000000     0.303020000000     0.039541   
H32      H      0.398050000000     0.978860000000     0.833480000000     0.0471107  
H33      H      0.275280000000     0.915340000000     0.208490000000     0.0471301  
H34      H      0.288100000000     0.885920000000     0.178030000000     0.0395612  
H35      H      0.353230000000     0.770100000000     0.200670000000     0.0476655  
H36      H      0.340550000000     0.799410000000     0.230930000000     0.0473084  
H37      H      0.280990000000     0.804850000000     0.249810000000     0.0482158  
H38      H      0.256150000000     0.828950000000     0.779260000000     0.0441746  
H39      H      0.280660000000     0.971850000000     0.265700000000     0.0565506  
H40      H      0.306140000000     0.947470000000     0.236200000000     0.0552834  
H41      H      0.392060000000     0.804980000000     0.018890000000     0.0482458  
H42      H      0.416910000000     0.829120000000     0.989450000000     0.0440772  
H43      H      0.392380000000     0.972010000000     0.003050000000     0.0565419  
H44      H      0.366870000000     0.947600000000     0.032530000000     0.0552528  
H45      H      0.397650000000     0.915440000000     0.060240000000     0.0470654  
H46      H      0.384810000000     0.885990000000     0.090690000000     0.0395448  
H47      H      0.319870000000     0.770160000000     0.068020000000     0.0476255  
H48      H      0.332560000000     0.799500000000     0.037770000000     0.0471946  
H49      H      0.340520000000     0.799370000000     0.980940000000     0.0473746  
H50      H      0.353190000000     0.770060000000     0.950680000000     0.0477627  
H51      H      0.288090000000     0.885900000000     0.928030000000     0.0396052  
H52      H      0.275260000000     0.915320000000     0.958490000000     0.0471394  
H53      H      0.306130000000     0.947440000000     0.986210000000     0.0553629  
H54      H      0.280650000000     0.971830000000     0.015710000000     0.0565559  
H55      H      0.256110000000     0.828940000000     0.029260000000     0.0437679  
H56      H      0.280950000000     0.804830000000     0.999810000000     0.0497126  
H57      H      0.366870000000     0.947580000000     0.782540000000     0.0553167  
H58      H      0.392380000000     0.971990000000     0.253050000000     0.0566162  
H59      H      0.416930000000     0.829090000000     0.239460000000     0.0441614  
H60      H      0.392080000000     0.804960000000     0.268900000000     0.0482087  
H61      H      0.332570000000     0.799470000000     0.287770000000     0.0472828  
H62      H      0.319880000000     0.770130000000     0.818020000000     0.0476566  
H63      H      0.384790000000     0.885970000000     0.840700000000     0.0395603  
H64      H      0.397640000000     0.915420000000     0.810250000000     0.0471371  
H65      H      0.516610000000     0.587140000000     0.190800000000     0.0503446  
H66      H      0.570950000000     0.538900000000     0.202420000000     0.0466923  
H67      H      0.644040000000     0.574120000000     0.156060000000     0.0476793  
H68      H      0.589200000000     0.622330000000     0.144360000000     0.0470874  
H69      H      0.547230000000     0.695380000000     0.151960000000     0.0450815  
H70      H      0.488400000000     0.738020000000     0.140730000000     0.0445416  
H71      H      0.413110000000     0.619540000000     0.152480000000     0.048266   
H72      H      0.471530000000     0.577540000000     0.163640000000     0.0502257  
H73      H      0.471410000000     0.316580000000     0.230090000000     0.0502521  
H74      H      0.413010000000     0.274420000000     0.241210000000     0.0483009  
H75      H      0.488510000000     0.156070000000     0.252930000000     0.0445257  
H76      H      0.547320000000     0.198890000000     0.241750000000     0.0451205  
H77      H      0.589010000000     0.272000000000     0.249410000000     0.0471555  
H78      H      0.643840000000     0.320360000000     0.237770000000     0.0476672  
H79      H      0.571120000000     0.355550000000     0.191380000000     0.0466795  
H80      H      0.516790000000     0.307170000000     0.202950000000     0.0503523  
H81      H      0.471520000000     0.577510000000     0.913630000000     0.0502901  
H82      H      0.413110000000     0.619510000000     0.902470000000     0.0483203  
H83      H      0.488390000000     0.738010000000     0.890750000000     0.0445674  
H84      H      0.547220000000     0.695370000000     0.901970000000     0.0450919  
H85      H      0.589200000000     0.622340000000     0.894380000000     0.047161   
H86      H      0.644040000000     0.574130000000     0.906070000000     0.0476727  
H87      H      0.570930000000     0.538850000000     0.952420000000     0.0467771  
H88      H      0.516590000000     0.587090000000     0.940800000000     0.0504273  
H89      H      0.589010000000     0.272000000000     0.999420000000     0.0473564  
H90      H      0.643840000000     0.320370000000     0.987770000000     0.0478801  
H91      H      0.571130000000     0.355500000000     0.941370000000     0.0467006  
H92      H      0.516810000000     0.307120000000     0.952950000000     0.0503785  
H93      H      0.471420000000     0.316540000000     0.980090000000     0.050385   
H94      H      0.413020000000     0.274380000000     0.991200000000     0.0486523  
H95      H      0.488520000000     0.156060000000     0.002950000000     0.0433896  
H96      H      0.547340000000     0.198870000000     0.991770000000     0.0453071  
H97      H      0.971530000000     0.077520000000     0.788630000000     0.0502456  
H98      H      0.913120000000     0.119520000000     0.777470000000     0.048266   
H99      H      0.988400000000     0.238010000000     0.265740000000     0.0445654  
H100     H      0.047230000000     0.195370000000     0.276970000000     0.0450603  
H101     H      0.089200000000     0.122340000000     0.269370000000     0.0472017  
H102     H      0.144050000000     0.074130000000     0.281060000000     0.0476548  
H103     H      0.070950000000     0.038870000000     0.827420000000     0.0467399  
H104     H      0.016610000000     0.087110000000     0.815800000000     0.0504111  
H105     H      0.583960000000     0.122300000000     0.249410000000     0.0471077  
H106     H      0.529120000000     0.074110000000     0.237730000000     0.0477336  
H107     H      0.602080000000     0.039010000000     0.191300000000     0.046699   
H108     H      0.656410000000     0.087220000000     0.202900000000     0.0503114  
H109     H      0.701620000000     0.077590000000     0.230030000000     0.0502648  
H110     H      0.760020000000     0.119570000000     0.241160000000     0.0482664  
H111     H      0.684620000000     0.237990000000     0.253010000000     0.0445455  
H112     H      0.625810000000     0.195360000000     0.241810000000     0.0451137  
H113     H      0.775270000000     0.415320000000     0.833490000000     0.0471221  
H114     H      0.788100000000     0.385900000000     0.803030000000     0.0395652  
H115     H      0.853210000000     0.270060000000     0.825670000000     0.0476558  
H116     H      0.840530000000     0.299380000000     0.855930000000     0.0473004  
H117     H      0.780950000000     0.304830000000     0.874800000000     0.0482458  
H118     H      0.756120000000     0.328930000000     0.904260000000     0.0441488  
H119     H      0.780650000000     0.471830000000     0.890700000000     0.0565474  
H120     H      0.806130000000     0.447440000000     0.861200000000     0.0553005  
H121     H      0.047210000000     0.195380000000     0.026960000000     0.0450623  
H122     H      0.988380000000     0.238030000000     0.015740000000     0.0444474  
H123     H      0.913100000000     0.119530000000     0.027470000000     0.0481401  
H124     H      0.971510000000     0.077530000000     0.038630000000     0.0501703  
H125     H      0.016590000000     0.087120000000     0.065800000000     0.0503893  
H126     H      0.070920000000     0.038880000000     0.077420000000     0.0466944  
H127     H      0.144030000000     0.074130000000     0.031060000000     0.0475943  
H128     H      0.089190000000     0.122340000000     0.019370000000     0.0470777  
H129     H      0.701620000000     0.077610000000     0.980030000000     0.0503616  
H130     H      0.760010000000     0.119600000000     0.991170000000     0.0486372  
H131     H      0.684610000000     0.238000000000     0.003030000000     0.043416   
H132     H      0.625800000000     0.195360000000     0.991830000000     0.0453385  
H133     H      0.583960000000     0.122290000000     0.999420000000     0.0473118  
H134     H      0.529120000000     0.074110000000     0.987740000000     0.0479284  
H135     H      0.602080000000     0.039050000000     0.941300000000     0.0466949  
H136     H      0.656400000000     0.087260000000     0.952910000000     0.0503881  
H137     H      0.840550000000     0.299410000000     0.105930000000     0.0472989  
H138     H      0.853220000000     0.270100000000     0.075670000000     0.0476267  
H139     H      0.788080000000     0.385910000000     0.053040000000     0.0394819  
H140     H      0.775260000000     0.415330000000     0.083500000000     0.0471238  
H141     H      0.806140000000     0.447470000000     0.111210000000     0.0553442  
H142     H      0.780660000000     0.471850000000     0.140710000000     0.0565498  
H143     H      0.756150000000     0.328960000000     0.154270000000     0.0441394  
H144     H      0.780980000000     0.304850000000     0.124810000000     0.0481809  
H145     H      0.656420000000     0.807250000000     0.190760000000     0.0503521  
H146     H      0.602090000000     0.855660000000     0.202350000000     0.0466377  
H147     H      0.529230000000     0.820350000000     0.156030000000     0.0476394  
H148     H      0.584070000000     0.771960000000     0.144360000000     0.0471277  
H149     H      0.625870000000     0.698870000000     0.152010000000     0.0451047  
H150     H      0.684700000000     0.656040000000     0.140810000000     0.0445144  
H151     H      0.760100000000     0.774450000000     0.152440000000     0.0482642  
H152     H      0.701680000000     0.816620000000     0.163580000000     0.0502101  
H153     H      0.047320000000     0.698880000000     0.116760000000     0.0450798  
H154     H      0.988500000000     0.656060000000     0.127940000000     0.0445392  
H155     H      0.913000000000     0.774390000000     0.116210000000     0.0482492  
H156     H      0.971400000000     0.816560000000     0.105090000000     0.0502074  
H157     H      0.016780000000     0.807140000000     0.077950000000     0.0503252  
H158     H      0.071110000000     0.855530000000     0.066380000000     0.0466101  
H159     H      0.143830000000     0.820370000000     0.112770000000     0.0476562  
H160     H      0.089000000000     0.772000000000     0.124420000000     0.0471757  
H161     H      0.780980000000     0.589310000000     0.018970000000     0.0482515  
H162     H      0.756110000000     0.565330000000     0.989550000000     0.0440751  
H163     H      0.780630000000     0.422360000000     0.002990000000     0.0564643  
H164     H      0.806120000000     0.446610000000     0.032470000000     0.0552342  
H165     H      0.775270000000     0.478740000000     0.060250000000     0.0470988  
H166     H      0.788160000000     0.508050000000     0.090700000000     0.0395013  
H167     H      0.853390000000     0.623750000000     0.067990000000     0.0476067  
H168     H      0.840590000000     0.594580000000     0.037750000000     0.0471968  
H169     H      0.701680000000     0.816650000000     0.913570000000     0.0502559  
H170     H      0.760100000000     0.774470000000     0.902430000000     0.048328   
H171     H      0.684720000000     0.656050000000     0.890830000000     0.044537   
H172     H      0.625890000000     0.698880000000     0.902030000000     0.0451537  
H173     H      0.584070000000     0.771950000000     0.894370000000     0.0471216  
H174     H      0.529230000000     0.820340000000     0.906040000000     0.0476729  
H175     H      0.602100000000     0.855700000000     0.952350000000     0.04675    
H176     H      0.656440000000     0.807290000000     0.940760000000     0.0503963  
H177     H      0.971420000000     0.816570000000     0.855090000000     0.0502471  
H178     H      0.913020000000     0.774410000000     0.866200000000     0.0482905  
H179     H      0.988520000000     0.656080000000     0.877940000000     0.0445527  
H180     H      0.047340000000     0.698890000000     0.866760000000     0.0450919  
H181     H      0.089020000000     0.772010000000     0.874410000000     0.0472124  
H182     H      0.143850000000     0.820370000000     0.862770000000     0.0476787  
H183     H      0.071130000000     0.855530000000     0.816370000000     0.0466806  
H184     H      0.016810000000     0.807150000000     0.827950000000     0.0504376  
H185     H      0.806120000000     0.446630000000     0.782470000000     0.0553402  
H186     H      0.780630000000     0.422380000000     0.253000000000     0.0565384  
H187     H      0.756080000000     0.565350000000     0.239560000000     0.0441517  
H188     H      0.780960000000     0.589330000000     0.268980000000     0.0482169  
H189     H      0.840580000000     0.594610000000     0.287750000000     0.0473319  
H190     H      0.853380000000     0.623770000000     0.818000000000     0.0476959  
H191     H      0.788180000000     0.508070000000     0.840710000000     0.0395179  
H192     H      0.775280000000     0.478750000000     0.810260000000     0.0471395  
H193     H      0.083970000000     0.622300000000     0.124410000000     0.0472131  
H194     H      0.029130000000     0.574110000000     0.112740000000     0.0477411  
H195     H      0.102090000000     0.539030000000     0.066310000000     0.0466127  
H196     H      0.156420000000     0.587250000000     0.077910000000     0.0502918  
H197     H      0.201620000000     0.577610000000     0.105030000000     0.0502288  
H198     H      0.260020000000     0.619590000000     0.116170000000     0.0482606  
H199     H      0.184630000000     0.738000000000     0.128020000000     0.0445692  
H200     H      0.125810000000     0.695370000000     0.116820000000     0.0450863  
H201     H      0.125890000000     0.198870000000     0.027020000000     0.0451112  
H202     H      0.184720000000     0.156040000000     0.015820000000     0.0444192  
H203     H      0.260110000000     0.274450000000     0.027430000000     0.048166   
H204     H      0.201690000000     0.316630000000     0.038570000000     0.0501872  
H205     H      0.156440000000     0.307270000000     0.065760000000     0.0503362  
H206     H      0.102110000000     0.355680000000     0.077350000000     0.046674   
H207     H      0.029240000000     0.320350000000     0.031030000000     0.047608   
H208     H      0.084080000000     0.271950000000     0.019370000000     0.0471098  
H209     H      0.866880000000     0.447570000000     0.157530000000     0.0554044  
H210     H      0.892390000000     0.471990000000     0.128050000000     0.0566094  
H211     H      0.916950000000     0.329100000000     0.114450000000     0.044146   
H212     H      0.892090000000     0.304960000000     0.143890000000     0.0482074  
H213     H      0.832590000000     0.299470000000     0.162760000000     0.0472759  
H214     H      0.819900000000     0.270120000000     0.193010000000     0.0476654  
H215     H      0.884800000000     0.385970000000     0.215700000000     0.0395496  
H216     H      0.897650000000     0.415420000000     0.185250000000     0.0471248  
H217     H      0.867120000000     0.446770000000     0.986270000000     0.0553211  
H218     H      0.892580000000     0.422540000000     0.015760000000     0.0564635  
H219     H      0.917110000000     0.565510000000     0.029170000000     0.0437264  
H220     H      0.892250000000     0.589460000000     0.999730000000     0.0496934  
H221     H      0.832560000000     0.594700000000     0.980950000000     0.0474705  
H222     H      0.819780000000     0.623840000000     0.950700000000     0.0477841  
H223     H      0.885180000000     0.508140000000     0.928030000000     0.0395703  
H224     H      0.898060000000     0.478860000000     0.958490000000     0.047123   
H225     H      0.156400000000     0.587240000000     0.827900000000     0.0503505  
H226     H      0.102070000000     0.539040000000     0.816300000000     0.0466774  
H227     H      0.029110000000     0.574110000000     0.862740000000     0.0477474  
H228     H      0.083950000000     0.622290000000     0.874410000000     0.047245   
H229     H      0.125800000000     0.695360000000     0.866820000000     0.0451357  
H230     H      0.184610000000     0.737990000000     0.878020000000     0.0445682  
H231     H      0.260010000000     0.619580000000     0.866160000000     0.048295   
H232     H      0.201610000000     0.577590000000     0.855030000000     0.0502848  
H233     H      0.125870000000     0.198880000000     0.277020000000     0.0451153  
H234     H      0.184710000000     0.156060000000     0.265820000000     0.0445644  
H235     H      0.260090000000     0.274470000000     0.777430000000     0.0483031  
H236     H      0.201670000000     0.316640000000     0.788570000000     0.0502573  
H237     H      0.156420000000     0.307280000000     0.815760000000     0.0503554  
H238     H      0.102090000000     0.355690000000     0.827350000000     0.0467184  
H239     H      0.029220000000     0.320350000000     0.281030000000     0.0477093  
H240     H      0.084060000000     0.271960000000     0.269370000000     0.0471671  
H241     H      0.866860000000     0.447600000000     0.907540000000     0.0553557  
H242     H      0.892380000000     0.472010000000     0.878050000000     0.0566321  
H243     H      0.916900000000     0.329110000000     0.864460000000     0.0441547  
H244     H      0.892050000000     0.304980000000     0.893900000000     0.048233   
H245     H      0.832550000000     0.299500000000     0.912770000000     0.0472725  
H246     H      0.819860000000     0.270170000000     0.943020000000     0.0477556  
H247     H      0.884790000000     0.385990000000     0.965700000000     0.0397043  
H248     H      0.897640000000     0.415440000000     0.935250000000     0.0471581  
H249     H      0.832520000000     0.594670000000     0.230950000000     0.0472909  
H250     H      0.819740000000     0.623800000000     0.200690000000     0.047695   
H251     H      0.885160000000     0.508120000000     0.178020000000     0.039513   
H252     H      0.898040000000     0.478840000000     0.208480000000     0.0471635  
H253     H      0.867110000000     0.446740000000     0.236270000000     0.0552848  
H254     H      0.892570000000     0.422520000000     0.265760000000     0.0564471  
H255     H      0.917060000000     0.565500000000     0.779160000000     0.0441282  
H256     H      0.892210000000     0.589440000000     0.249720000000     0.0482014  
H257     H      0.306110000000     0.946630000000     0.657470000000     0.0553035  
H258     H      0.280620000000     0.922380000000     0.627990000000     0.0565355  
H259     H      0.256070000000     0.065350000000     0.614550000000     0.0441541  
H260     H      0.280950000000     0.089330000000     0.643980000000     0.0482075  
H261     H      0.340570000000     0.094610000000     0.662750000000     0.047317   
H262     H      0.353370000000     0.123780000000     0.692990000000     0.0477227  
H263     H      0.288170000000     0.008070000000     0.715700000000     0.0395696  
H264     H      0.275270000000     0.978760000000     0.685250000000     0.0471182  
H265     H      0.340610000000     0.094580000000     0.412750000000     0.0473235  
H266     H      0.353410000000     0.123740000000     0.443000000000     0.0477098  
H267     H      0.288180000000     0.008040000000     0.465700000000     0.0395527  
H268     H      0.275280000000     0.978730000000     0.435250000000     0.0471074  
H269     H      0.306130000000     0.946600000000     0.407470000000     0.0553564  
H270     H      0.280640000000     0.922360000000     0.378000000000     0.0565444  
H271     H      0.256120000000     0.065340000000     0.364550000000     0.0441416  
H272     H      0.281000000000     0.089310000000     0.393980000000     0.0482194  
H273     H      0.392220000000     0.089440000000     0.624730000000     0.0482312  
H274     H      0.417070000000     0.065490000000     0.654170000000     0.0441281  
H275     H      0.392570000000     0.922520000000     0.640760000000     0.0564666  
H276     H      0.367110000000     0.946740000000     0.611270000000     0.0552743  
H277     H      0.398050000000     0.978840000000     0.583490000000     0.0471256  
H278     H      0.385180000000     0.008120000000     0.553030000000     0.0395236  
H279     H      0.319760000000     0.123810000000     0.575700000000     0.0476777  
H280     H      0.332530000000     0.094670000000     0.605950000000     0.0473517  
H281     H      0.367120000000     0.946770000000     0.361270000000     0.0553195  
H282     H      0.392580000000     0.922540000000     0.390760000000     0.0564357  
H283     H      0.417100000000     0.065510000000     0.404160000000     0.0441144  
H284     H      0.392250000000     0.089460000000     0.374720000000     0.0482487  
H285     H      0.332560000000     0.094700000000     0.355950000000     0.0473055  
H286     H      0.319770000000     0.123840000000     0.325690000000     0.0477115  
H287     H      0.385160000000     0.008140000000     0.803020000000     0.0395435  
H288     H      0.398050000000     0.978860000000     0.333480000000     0.0471173  
H289     H      0.275280000000     0.915340000000     0.708490000000     0.0471237  
H290     H      0.288100000000     0.885920000000     0.678030000000     0.039563   
H291     H      0.353230000000     0.770100000000     0.700670000000     0.0476731  
H292     H      0.340550000000     0.799410000000     0.730930000000     0.0472861  
H293     H      0.280990000000     0.804850000000     0.749810000000     0.0482134  
H294     H      0.256150000000     0.828960000000     0.279260000000     0.0441875  
H295     H      0.280660000000     0.971850000000     0.765710000000     0.05656    
H296     H      0.306140000000     0.947470000000     0.736200000000     0.055279   
H297     H      0.392060000000     0.804980000000     0.518890000000     0.0482194  
H298     H      0.416910000000     0.829120000000     0.489450000000     0.0441677  
H299     H      0.392380000000     0.972010000000     0.503050000000     0.0566247  
H300     H      0.366870000000     0.947600000000     0.532530000000     0.055343   
H301     H      0.397650000000     0.915440000000     0.560240000000     0.0471204  
H302     H      0.384800000000     0.885990000000     0.590690000000     0.0395625  
H303     H      0.319870000000     0.770160000000     0.568020000000     0.047667   
H304     H      0.332560000000     0.799500000000     0.537770000000     0.0473303  
H305     H      0.340520000000     0.799380000000     0.480940000000     0.0472666  
H306     H      0.353190000000     0.770060000000     0.450680000000     0.0476437  
H307     H      0.288090000000     0.885900000000     0.428030000000     0.0395469  
H308     H      0.275260000000     0.915320000000     0.458490000000     0.0471515  
H309     H      0.306130000000     0.947440000000     0.486210000000     0.0553342  
H310     H      0.280650000000     0.971830000000     0.515710000000     0.0565387  
H311     H      0.256110000000     0.828940000000     0.529260000000     0.0441565  
H312     H      0.280940000000     0.804830000000     0.499810000000     0.0482286  
H313     H      0.366870000000     0.947580000000     0.282540000000     0.0553273  
H314     H      0.392390000000     0.971990000000     0.753050000000     0.0566321  
H315     H      0.416940000000     0.829090000000     0.739460000000     0.0441581  
H316     H      0.392080000000     0.804960000000     0.768900000000     0.0481979  
H317     H      0.332580000000     0.799470000000     0.787770000000     0.0472758  
H318     H      0.319880000000     0.770130000000     0.318020000000     0.0476606  
H319     H      0.384790000000     0.885970000000     0.340700000000     0.0395532  
H320     H      0.397640000000     0.915420000000     0.310250000000     0.0471465  
H321     H      0.516610000000     0.587150000000     0.690800000000     0.0503425  
H322     H      0.570950000000     0.538910000000     0.702420000000     0.0466816  
H323     H      0.644040000000     0.574120000000     0.656060000000     0.0476729  
H324     H      0.589190000000     0.622330000000     0.644360000000     0.0471438  
H325     H      0.547230000000     0.695380000000     0.651960000000     0.045102   
H326     H      0.488400000000     0.738020000000     0.640730000000     0.0445702  
H327     H      0.413110000000     0.619540000000     0.652480000000     0.0482967  
H328     H      0.471530000000     0.577540000000     0.663640000000     0.0502224  
H329     H      0.471410000000     0.316580000000     0.730090000000     0.0502469  
H330     H      0.413010000000     0.274420000000     0.741210000000     0.0482964  
H331     H      0.488500000000     0.156070000000     0.752930000000     0.0445347  
H332     H      0.547320000000     0.198890000000     0.741750000000     0.0451142  
H333     H      0.589010000000     0.272000000000     0.749410000000     0.0471576  
H334     H      0.643850000000     0.320360000000     0.737760000000     0.0476649  
H335     H      0.571110000000     0.355560000000     0.691380000000     0.0466539  
H336     H      0.516790000000     0.307170000000     0.702950000000     0.0503674  
H337     H      0.471520000000     0.577510000000     0.413630000000     0.0502594  
H338     H      0.413110000000     0.619510000000     0.402470000000     0.0482835  
H339     H      0.488390000000     0.738010000000     0.390750000000     0.0445577  
H340     H      0.547210000000     0.695370000000     0.401970000000     0.045116   
H341     H      0.589200000000     0.622340000000     0.394380000000     0.0471653  
H342     H      0.644040000000     0.574130000000     0.406070000000     0.047675   
H343     H      0.570930000000     0.538850000000     0.452420000000     0.0466861  
H344     H      0.516590000000     0.587090000000     0.440800000000     0.0503481  
H345     H      0.589010000000     0.272000000000     0.499420000000     0.0471603  
H346     H      0.643840000000     0.320370000000     0.487770000000     0.0476943  
H347     H      0.571120000000     0.355510000000     0.441380000000     0.0466712  
H348     H      0.516800000000     0.307120000000     0.452950000000     0.0503393  
H349     H      0.471410000000     0.316550000000     0.480090000000     0.0502528  
H350     H      0.413010000000     0.274380000000     0.491200000000     0.0482895  
H351     H      0.488520000000     0.156060000000     0.502950000000     0.0445232  
H352     H      0.547340000000     0.198880000000     0.491770000000     0.0450933  
H353     H      0.971530000000     0.077520000000     0.288640000000     0.0502364  
H354     H      0.913120000000     0.119520000000     0.277480000000     0.0482834  
H355     H      0.988400000000     0.238010000000     0.765740000000     0.0445451  
H356     H      0.047230000000     0.195370000000     0.776960000000     0.0450877  
H357     H      0.089200000000     0.122340000000     0.769370000000     0.047173   
H358     H      0.144050000000     0.074130000000     0.781060000000     0.0476874  
H359     H      0.070950000000     0.038880000000     0.327420000000     0.0466945  
H360     H      0.016610000000     0.087120000000     0.315800000000     0.0504435  
H361     H      0.583960000000     0.122300000000     0.749410000000     0.0471123  
H362     H      0.529120000000     0.074120000000     0.737730000000     0.0477065  
H363     H      0.602090000000     0.039000000000     0.691310000000     0.0466876  
H364     H      0.656420000000     0.087220000000     0.702900000000     0.0503351  
H365     H      0.701620000000     0.077580000000     0.730030000000     0.0502575  
H366     H      0.760020000000     0.119570000000     0.741170000000     0.0482723  
H367     H      0.684630000000     0.237990000000     0.753010000000     0.044555   
H368     H      0.625810000000     0.195360000000     0.741810000000     0.0450836  
H369     H      0.775270000000     0.415320000000     0.333490000000     0.047131   
H370     H      0.788100000000     0.385900000000     0.303030000000     0.039563   
H371     H      0.853200000000     0.270060000000     0.325670000000     0.0476457  
H372     H      0.840520000000     0.299380000000     0.355930000000     0.0472973  
H373     H      0.780940000000     0.304830000000     0.374800000000     0.048241   
H374     H      0.756110000000     0.328930000000     0.404260000000     0.0441407  
H375     H      0.780650000000     0.471830000000     0.390700000000     0.0565498  
H376     H      0.806130000000     0.447440000000     0.361200000000     0.0553035  
H377     H      0.047210000000     0.195380000000     0.526960000000     0.0450921  
H378     H      0.988390000000     0.238030000000     0.515740000000     0.0445523  
H379     H      0.913100000000     0.119540000000     0.527470000000     0.0482686  
H380     H      0.971510000000     0.077530000000     0.538630000000     0.0502451  
H381     H      0.016590000000     0.087120000000     0.565800000000     0.0503937  
H382     H      0.070920000000     0.038880000000     0.577420000000     0.0467061  
H383     H      0.144030000000     0.074130000000     0.531060000000     0.0476789  
H384     H      0.089190000000     0.122340000000     0.519370000000     0.0471846  
H385     H      0.701620000000     0.077610000000     0.480030000000     0.0502758  
H386     H      0.760010000000     0.119600000000     0.491170000000     0.0482785  
H387     H      0.684610000000     0.238000000000     0.503030000000     0.0445476  
H388     H      0.625800000000     0.195360000000     0.491830000000     0.0450907  
H389     H      0.583960000000     0.122290000000     0.499420000000     0.0471233  
H390     H      0.529120000000     0.074110000000     0.487740000000     0.0477145  
H391     H      0.602080000000     0.039050000000     0.441300000000     0.0466868  
H392     H      0.656410000000     0.087260000000     0.452910000000     0.0503401  
H393     H      0.840550000000     0.299410000000     0.605930000000     0.0472865  
H394     H      0.853220000000     0.270100000000     0.575670000000     0.0476528  
H395     H      0.788090000000     0.385920000000     0.553040000000     0.0395459  
H396     H      0.775260000000     0.415340000000     0.583500000000     0.0471262  
H397     H      0.806130000000     0.447470000000     0.611210000000     0.0553611  
H398     H      0.780650000000     0.471850000000     0.640710000000     0.0565382  
H399     H      0.756140000000     0.328960000000     0.654270000000     0.044139   
H400     H      0.780980000000     0.304850000000     0.624810000000     0.0482089  
H401     H      0.656420000000     0.807240000000     0.690760000000     0.0503454  
H402     H      0.602090000000     0.855660000000     0.702350000000     0.0466512  
H403     H      0.529230000000     0.820350000000     0.656030000000     0.0476686  
H404     H      0.584070000000     0.771960000000     0.644360000000     0.0471515  
H405     H      0.625870000000     0.698870000000     0.652010000000     0.0450974  
H406     H      0.684710000000     0.656040000000     0.640810000000     0.0445337  
H407     H      0.760100000000     0.774440000000     0.652440000000     0.0482999  
H408     H      0.701680000000     0.816620000000     0.663580000000     0.0502287  
H409     H      0.047320000000     0.698880000000     0.616760000000     0.0450838  
H410     H      0.988510000000     0.656060000000     0.627940000000     0.0445257  
H411     H      0.913010000000     0.774390000000     0.616210000000     0.0482782  
H412     H      0.971400000000     0.816560000000     0.605090000000     0.0502245  
H413     H      0.016780000000     0.807140000000     0.577950000000     0.0503942  
H414     H      0.071110000000     0.855530000000     0.566380000000     0.0466814  
H415     H      0.143830000000     0.820370000000     0.612770000000     0.0476471  
H416     H      0.089000000000     0.772000000000     0.624410000000     0.0472216  
H417     H      0.780980000000     0.589310000000     0.518970000000     0.0482208  
H418     H      0.756110000000     0.565330000000     0.489550000000     0.0441382  
H419     H      0.780630000000     0.422360000000     0.502990000000     0.0565379  
H420     H      0.806120000000     0.446610000000     0.532470000000     0.055324   
H421     H      0.775270000000     0.478740000000     0.560250000000     0.0471595  
H422     H      0.788170000000     0.508050000000     0.590700000000     0.0395139  
H423     H      0.853390000000     0.623750000000     0.568000000000     0.0476785  
H424     H      0.840600000000     0.594580000000     0.537750000000     0.0473247  
H425     H      0.701690000000     0.816650000000     0.413570000000     0.0502149  
H426     H      0.760100000000     0.774470000000     0.402430000000     0.0482976  
H427     H      0.684720000000     0.656050000000     0.390830000000     0.0445437  
H428     H      0.625890000000     0.698870000000     0.402030000000     0.0451115  
H429     H      0.584070000000     0.771950000000     0.394370000000     0.0471362  
H430     H      0.529230000000     0.820340000000     0.406040000000     0.0476788  
H431     H      0.602100000000     0.855700000000     0.452350000000     0.0466907  
H432     H      0.656440000000     0.807290000000     0.440760000000     0.0503262  
H433     H      0.971420000000     0.816580000000     0.355090000000     0.0502502  
H434     H      0.913020000000     0.774420000000     0.366210000000     0.0482497  
H435     H      0.988520000000     0.656080000000     0.377940000000     0.0445082  
H436     H      0.047340000000     0.698890000000     0.366760000000     0.0450987  
H437     H      0.089020000000     0.772010000000     0.374410000000     0.0471769  
H438     H      0.143860000000     0.820360000000     0.362770000000     0.0476576  
H439     H      0.071130000000     0.855540000000     0.316380000000     0.0467086  
H440     H      0.016800000000     0.807160000000     0.327950000000     0.0504127  
H441     H      0.806120000000     0.446630000000     0.282470000000     0.0553424  
H442     H      0.780630000000     0.422380000000     0.753000000000     0.0565299  
H443     H      0.756080000000     0.565360000000     0.739560000000     0.0441237  
H444     H      0.780950000000     0.589330000000     0.768980000000     0.0482035  
H445     H      0.840580000000     0.594610000000     0.787750000000     0.0473153  
H446     H      0.853380000000     0.623770000000     0.318000000000     0.0476905  
H447     H      0.788180000000     0.508070000000     0.340710000000     0.0395119  
H448     H      0.775280000000     0.478760000000     0.310260000000     0.0471704  
H449     H      0.083970000000     0.622300000000     0.624410000000     0.0471897  
H450     H      0.029130000000     0.574110000000     0.612740000000     0.0477485  
H451     H      0.102090000000     0.539030000000     0.566310000000     0.046703   
H452     H      0.156420000000     0.587250000000     0.577910000000     0.0503482  
H453     H      0.201620000000     0.577610000000     0.605030000000     0.0502514  
H454     H      0.260020000000     0.619600000000     0.616170000000     0.0483014  
H455     H      0.184620000000     0.738000000000     0.628020000000     0.0445647  
H456     H      0.125810000000     0.695370000000     0.616820000000     0.0450876  
H457     H      0.125890000000     0.198870000000     0.527020000000     0.045126   
H458     H      0.184720000000     0.156040000000     0.515820000000     0.0445484  
H459     H      0.260110000000     0.274450000000     0.527430000000     0.0482921  
H460     H      0.201690000000     0.316630000000     0.538570000000     0.0502527  
H461     H      0.156440000000     0.307270000000     0.565760000000     0.0503581  
H462     H      0.102110000000     0.355680000000     0.577350000000     0.0466663  
H463     H      0.029240000000     0.320350000000     0.531030000000     0.0476755  
H464     H      0.084080000000     0.271950000000     0.519370000000     0.0472289  
H465     H      0.866870000000     0.447570000000     0.657530000000     0.0554043  
H466     H      0.892390000000     0.472000000000     0.628050000000     0.0565981  
H467     H      0.916940000000     0.329100000000     0.614450000000     0.0441225  
H468     H      0.892090000000     0.304960000000     0.643890000000     0.0482153  
H469     H      0.832580000000     0.299470000000     0.662760000000     0.0472545  
H470     H      0.819890000000     0.270130000000     0.693010000000     0.0476726  
H471     H      0.884800000000     0.385970000000     0.715700000000     0.0395515  
H472     H      0.897650000000     0.415420000000     0.685250000000     0.0471194  
H473     H      0.867120000000     0.446770000000     0.486270000000     0.055294   
H474     H      0.892580000000     0.422540000000     0.515760000000     0.0564428  
H475     H      0.917110000000     0.565510000000     0.529170000000     0.0441138  
H476     H      0.892250000000     0.589460000000     0.499730000000     0.0482099  
H477     H      0.832560000000     0.594700000000     0.480960000000     0.0472951  
H478     H      0.819780000000     0.623840000000     0.450700000000     0.0476839  
H479     H      0.885180000000     0.508140000000     0.428030000000     0.0395064  
H480     H      0.898060000000     0.478860000000     0.458490000000     0.0471444  
H481     H      0.156400000000     0.587230000000     0.327900000000     0.0503251  
H482     H      0.102070000000     0.539020000000     0.316300000000     0.046691   
H483     H      0.029110000000     0.574110000000     0.362740000000     0.0477594  
H484     H      0.083950000000     0.622290000000     0.374410000000     0.0471988  
H485     H      0.125800000000     0.695360000000     0.366820000000     0.0451144  
H486     H      0.184610000000     0.737990000000     0.378020000000     0.044548   
H487     H      0.260010000000     0.619570000000     0.366170000000     0.0482799  
H488     H      0.201600000000     0.577590000000     0.355030000000     0.0502725  
H489     H      0.125870000000     0.198880000000     0.777020000000     0.045124   
H490     H      0.184710000000     0.156050000000     0.765820000000     0.0445451  
H491     H      0.260090000000     0.274470000000     0.277440000000     0.0483102  
H492     H      0.201670000000     0.316640000000     0.288580000000     0.0502518  
H493     H      0.156420000000     0.307270000000     0.315760000000     0.0503765  
H494     H      0.102080000000     0.355680000000     0.327350000000     0.0466939  
H495     H      0.029220000000     0.320350000000     0.781030000000     0.0476977  
H496     H      0.084060000000     0.271960000000     0.769370000000     0.0471619  
H497     H      0.866860000000     0.447600000000     0.407540000000     0.0553748  
H498     H      0.892370000000     0.472010000000     0.378050000000     0.0566131  
H499     H      0.916890000000     0.329110000000     0.364450000000     0.0441352  
H500     H      0.892040000000     0.304980000000     0.393900000000     0.0482017  
H501     H      0.832540000000     0.299510000000     0.412770000000     0.0472737  
H502     H      0.819850000000     0.270170000000     0.443020000000     0.0476703  
H503     H      0.884790000000     0.385990000000     0.465700000000     0.0395708  
H504     H      0.897640000000     0.415440000000     0.435250000000     0.0471166  
H505     H      0.832520000000     0.594670000000     0.730950000000     0.0472845  
H506     H      0.819740000000     0.623800000000     0.700690000000     0.0476898  
H507     H      0.885170000000     0.508120000000     0.678020000000     0.0395009  
H508     H      0.898040000000     0.478840000000     0.708480000000     0.0471608  
H509     H      0.867110000000     0.446740000000     0.736270000000     0.0552791  
H510     H      0.892570000000     0.422520000000     0.765760000000     0.0564541  
H511     H      0.917070000000     0.565500000000     0.279160000000     0.0441307  
H512     H      0.892210000000     0.589440000000     0.749720000000     0.0481907  
O1       O      0.000270000000     0.385750000000     0.301610000000    -0.230583   
O2       O      0.926910000000     0.459030000000     0.847010000000    -0.233364   
O3       O      0.927010000000     0.435690000000     0.296740000000    -0.233475   
O4       O      0.034350000000     0.496930000000     0.817870000000    -0.23516    
O5       O      0.000140000000     0.509000000000     0.842100000000    -0.230343   
O6       O      0.947160000000     0.505510000000     0.801030000000    -0.239208   
O7       O      0.034340000000     0.397790000000     0.825820000000    -0.235281   
O8       O      0.947100000000     0.389220000000     0.842650000000    -0.239164   
O9       O      0.000290000000     0.385750000000     0.051610000000    -0.230582   
O10      O      0.926930000000     0.459020000000     0.097010000000    -0.233333   
O11      O      0.927040000000     0.435700000000     0.046740000000    -0.233624   
O12      O      0.034380000000     0.496930000000     0.067880000000    -0.235471   
O13      O      0.000170000000     0.508990000000     0.092100000000    -0.230522   
O14      O      0.947190000000     0.505510000000     0.051030000000    -0.239342   
O15      O      0.034360000000     0.397790000000     0.075820000000    -0.235275   
O16      O      0.947130000000     0.389210000000     0.092650000000    -0.239109   
O17      O      0.798110000000     0.703780000000     0.891180000000    -0.229628   
O18      O      0.838950000000     0.629960000000     0.851650000000    -0.240961   
O19      O      0.834260000000     0.630010000000     0.917050000000    -0.240799   
O20      O      0.910940000000     0.642970000000     0.882440000000    -0.235522   
O21      O      0.875080000000     0.703760000000     0.877500000000    -0.229701   
O22      O      0.855390000000     0.567510000000     0.904380000000    -0.236934   
O23      O      0.762300000000     0.642970000000     0.886280000000    -0.235544   
O24      O      0.817920000000     0.567470000000     0.864340000000    -0.236885   
O25      O      0.834240000000     0.629970000000     0.167040000000    -0.24098    
O26      O      0.875060000000     0.703740000000     0.127490000000    -0.229715   
O27      O      0.798100000000     0.703750000000     0.141180000000    -0.229679   
O28      O      0.817900000000     0.567450000000     0.114330000000    -0.237061   
O29      O      0.838950000000     0.629940000000     0.101650000000    -0.240984   
O30      O      0.762280000000     0.642950000000     0.136270000000    -0.235553   
O31      O      0.855380000000     0.567480000000     0.154370000000    -0.23696    
O32      O      0.910930000000     0.642950000000     0.132440000000    -0.235604   
O33      O      0.798000000000     0.190150000000     0.002490000000    -0.229954   
O34      O      0.838640000000     0.263830000000     0.042050000000    -0.240998   
O35      O      0.834380000000     0.263870000000     0.976650000000    -0.240397   
O36      O      0.910820000000     0.250960000000     0.011210000000    -0.235848   
O37      O      0.875050000000     0.190130000000     0.016190000000    -0.229882   
O38      O      0.855080000000     0.326460000000     0.989340000000    -0.236327   
O39      O      0.762170000000     0.250950000000     0.007500000000    -0.235803   
O40      O      0.817840000000     0.326430000000     0.029370000000    -0.237092   
O41      O      0.838630000000     0.263790000000     0.792050000000    -0.240898   
O42      O      0.798010000000     0.190120000000     0.252480000000    -0.229722   
O43      O      0.875070000000     0.190100000000     0.766190000000    -0.229718   
O44      O      0.855090000000     0.326440000000     0.239340000000    -0.236807   
O45      O      0.834420000000     0.263830000000     0.226640000000    -0.240958   
O46      O      0.910830000000     0.250930000000     0.261210000000    -0.235667   
O47      O      0.817860000000     0.326400000000     0.279370000000    -0.236876   
O48      O      0.762190000000     0.250930000000     0.257490000000    -0.235666   
O49      O      0.672970000000     0.508900000000     0.926680000000    -0.230538   
O50      O      0.746150000000     0.435500000000     0.972010000000    -0.233147   
O51      O      0.746140000000     0.458840000000     0.921730000000    -0.23343    
O52      O      0.638820000000     0.397630000000     0.942940000000    -0.235369   
O53      O      0.672820000000     0.385660000000     0.967180000000    -0.230499   
O54      O      0.726010000000     0.389030000000     0.926100000000    -0.239191   
O55      O      0.638700000000     0.496770000000     0.950880000000    -0.2353     
O56      O      0.725940000000     0.505330000000     0.967730000000    -0.239007   
O57      O      0.746150000000     0.458860000000     0.171740000000    -0.233417   
O58      O      0.638810000000     0.397670000000     0.192940000000    -0.235379   
O59      O      0.672980000000     0.508910000000     0.176680000000    -0.230551   
O60      O      0.725930000000     0.505350000000     0.217730000000    -0.239072   
O61      O      0.746150000000     0.435530000000     0.222020000000    -0.233372   
O62      O      0.638710000000     0.496810000000     0.200880000000    -0.235401   
O63      O      0.726020000000     0.389050000000     0.176110000000    -0.239058   
O64      O      0.672820000000     0.385670000000     0.217170000000    -0.230766   
O65      O      0.375060000000     0.690100000000     0.891190000000    -0.229696   
O66      O      0.334400000000     0.763840000000     0.851650000000    -0.241013   
O67      O      0.338620000000     0.763790000000     0.917050000000    -0.240866   
O68      O      0.262180000000     0.750930000000     0.882500000000    -0.235647   
O69      O      0.298000000000     0.690120000000     0.877490000000    -0.229699   
O70      O      0.317850000000     0.826410000000     0.904370000000    -0.236833   
O71      O      0.410820000000     0.750930000000     0.886220000000    -0.235706   
O72      O      0.355090000000     0.826440000000     0.864340000000    -0.23695    
O73      O      0.375070000000     0.690130000000     0.141190000000    -0.229744   
O74      O      0.334400000000     0.763860000000     0.101640000000    -0.240897   
O75      O      0.338650000000     0.763830000000     0.167050000000    -0.24093    
O76      O      0.262190000000     0.750950000000     0.132500000000    -0.235658   
O77      O      0.298010000000     0.690150000000     0.127480000000    -0.22984    
O78      O      0.317860000000     0.826430000000     0.154370000000    -0.236878   
O79      O      0.410840000000     0.750950000000     0.136210000000    -0.235674   
O80      O      0.355100000000     0.826460000000     0.114340000000    -0.236816   
O81      O      0.426910000000     0.959030000000     0.972010000000    -0.233106   
O82      O      0.534350000000     0.897800000000     0.950820000000    -0.235224   
O83      O      0.500150000000     0.008990000000     0.967100000000    -0.230317   
O84      O      0.447180000000     0.005520000000     0.926020000000    -0.239085   
O85      O      0.427030000000     0.935700000000     0.921740000000    -0.233488   
O86      O      0.534360000000     0.996930000000     0.942870000000    -0.235251   
O87      O      0.447110000000     0.889220000000     0.967650000000    -0.238921   
O88      O      0.500280000000     0.885750000000     0.926610000000    -0.230615   
O89      O      0.500150000000     0.008990000000     0.217100000000    -0.230489   
O90      O      0.427020000000     0.935680000000     0.171740000000    -0.233518   
O91      O      0.426920000000     0.959010000000     0.222020000000    -0.233511   
O92      O      0.534340000000     0.897770000000     0.200820000000    -0.235389   
O93      O      0.500280000000     0.885740000000     0.176610000000    -0.230694   
O94      O      0.447120000000     0.889200000000     0.217660000000    -0.239193   
O95      O      0.534360000000     0.996910000000     0.192870000000    -0.235279   
O96      O      0.447160000000     0.005500000000     0.176030000000    -0.239113   
O97      O      0.410940000000     0.142950000000     0.007440000000    -0.235725   
O98      O      0.334250000000     0.129970000000     0.042050000000    -0.241003   
O99      O      0.338960000000     0.129930000000     0.976650000000    -0.240384   
O100     O      0.262300000000     0.142950000000     0.011270000000    -0.235813   
O101     O      0.298110000000     0.203750000000     0.016180000000    -0.229812   
O102     O      0.317920000000     0.067450000000     0.989340000000    -0.236226   
O103     O      0.375070000000     0.203740000000     0.002500000000    -0.229898   
O104     O      0.355390000000     0.067480000000     0.029380000000    -0.23716    
O105     O      0.298090000000     0.203780000000     0.766180000000    -0.229737   
O106     O      0.338930000000     0.129970000000     0.226650000000    -0.240862   
O107     O      0.334250000000     0.130000000000     0.792050000000    -0.240969   
O108     O      0.410930000000     0.142970000000     0.257430000000    -0.235556   
O109     O      0.375070000000     0.203760000000     0.252490000000    -0.229792   
O110     O      0.355380000000     0.067510000000     0.279370000000    -0.237012   
O111     O      0.262280000000     0.142970000000     0.261270000000    -0.235465   
O112     O      0.317910000000     0.067480000000     0.239340000000    -0.236859   
O113     O      0.246150000000     0.958860000000     0.296740000000    -0.233469   
O114     O      0.138830000000     0.897650000000     0.817940000000    -0.235391   
O115     O      0.172990000000     0.008920000000     0.301680000000    -0.230536   
O116     O      0.225940000000     0.005340000000     0.842730000000    -0.239093   
O117     O      0.246160000000     0.935520000000     0.847010000000    -0.233492   
O118     O      0.138720000000     0.996790000000     0.825880000000    -0.235423   
O119     O      0.226030000000     0.889040000000     0.801100000000    -0.239116   
O120     O      0.172840000000     0.885670000000     0.842170000000    -0.230698   
O121     O      0.246130000000     0.935530000000     0.097010000000    -0.233508   
O122     O      0.172960000000     0.008910000000     0.051680000000    -0.230653   
O123     O      0.172810000000     0.885670000000     0.092170000000    -0.230714   
O124     O      0.226000000000     0.889040000000     0.051110000000    -0.239142   
O125     O      0.246130000000     0.958850000000     0.046740000000    -0.233407   
O126     O      0.138800000000     0.897650000000     0.067940000000    -0.235461   
O127     O      0.225910000000     0.005350000000     0.092730000000    -0.23912    
O128     O      0.138690000000     0.996790000000     0.075880000000    -0.23528    
O129     O      0.000270000000     0.385750000000     0.801610000000    -0.230606   
O130     O      0.926900000000     0.459030000000     0.347010000000    -0.233358   
O131     O      0.927010000000     0.435690000000     0.796740000000    -0.233561   
O132     O      0.034350000000     0.496920000000     0.317870000000    -0.235164   
O133     O      0.000140000000     0.508990000000     0.342100000000    -0.230357   
O134     O      0.947160000000     0.505510000000     0.301030000000    -0.239121   
O135     O      0.034330000000     0.397780000000     0.325820000000    -0.235294   
O136     O      0.947090000000     0.389220000000     0.342650000000    -0.239175   
O137     O      0.000290000000     0.385750000000     0.551610000000    -0.230491   
O138     O      0.926930000000     0.459020000000     0.597010000000    -0.233342   
O139     O      0.927040000000     0.435700000000     0.546740000000    -0.23358    
O140     O      0.034380000000     0.496920000000     0.567880000000    -0.235358   
O141     O      0.000170000000     0.508990000000     0.592100000000    -0.230495   
O142     O      0.947190000000     0.505510000000     0.551030000000    -0.239267   
O143     O      0.034360000000     0.397790000000     0.575820000000    -0.235227   
O144     O      0.947130000000     0.389210000000     0.592650000000    -0.239121   
O145     O      0.798110000000     0.703780000000     0.391180000000    -0.229649   
O146     O      0.838950000000     0.629960000000     0.351650000000    -0.24096    
O147     O      0.834270000000     0.630000000000     0.417050000000    -0.240966   
O148     O      0.910940000000     0.642970000000     0.382440000000    -0.235551   
O149     O      0.875080000000     0.703760000000     0.377500000000    -0.229725   
O150     O      0.855390000000     0.567510000000     0.404380000000    -0.236995   
O151     O      0.762300000000     0.642970000000     0.386280000000    -0.235542   
O152     O      0.817920000000     0.567470000000     0.364340000000    -0.236888   
O153     O      0.834240000000     0.629970000000     0.667040000000    -0.240963   
O154     O      0.875060000000     0.703740000000     0.627500000000    -0.229698   
O155     O      0.798100000000     0.703750000000     0.641180000000    -0.229665   
O156     O      0.817910000000     0.567450000000     0.614330000000    -0.237054   
O157     O      0.838950000000     0.629940000000     0.601650000000    -0.24092    
O158     O      0.762290000000     0.642950000000     0.636270000000    -0.235621   
O159     O      0.855380000000     0.567480000000     0.654370000000    -0.236992   
O160     O      0.910930000000     0.642950000000     0.632440000000    -0.235602   
O161     O      0.798000000000     0.190150000000     0.502490000000    -0.229743   
O162     O      0.838640000000     0.263830000000     0.542050000000    -0.240963   
O163     O      0.834380000000     0.263870000000     0.476650000000    -0.240938   
O164     O      0.910820000000     0.250960000000     0.511210000000    -0.235612   
O165     O      0.875050000000     0.190130000000     0.516190000000    -0.229725   
O166     O      0.855090000000     0.326470000000     0.489340000000    -0.236934   
O167     O      0.762180000000     0.250950000000     0.507500000000    -0.235668   
O168     O      0.817840000000     0.326430000000     0.529370000000    -0.236891   
O169     O      0.838630000000     0.263790000000     0.292050000000    -0.240908   
O170     O      0.798010000000     0.190120000000     0.752480000000    -0.229702   
O171     O      0.875060000000     0.190100000000     0.266190000000    -0.229695   
O172     O      0.855090000000     0.326440000000     0.739340000000    -0.236811   
O173     O      0.834410000000     0.263830000000     0.726640000000    -0.240863   
O174     O      0.910830000000     0.250930000000     0.761210000000    -0.235692   
O175     O      0.817860000000     0.326410000000     0.779370000000    -0.236835   
O176     O      0.762190000000     0.250940000000     0.757490000000    -0.235593   
O177     O      0.672970000000     0.508910000000     0.426680000000    -0.230535   
O178     O      0.746150000000     0.435510000000     0.472010000000    -0.233513   
O179     O      0.746140000000     0.458840000000     0.421730000000    -0.23352    
O180     O      0.638820000000     0.397640000000     0.442940000000    -0.235362   
O181     O      0.672820000000     0.385660000000     0.467180000000    -0.230571   
O182     O      0.726010000000     0.389030000000     0.426100000000    -0.239226   
O183     O      0.638700000000     0.496770000000     0.450880000000    -0.235357   
O184     O      0.725940000000     0.505330000000     0.467730000000    -0.239176   
O185     O      0.746150000000     0.458860000000     0.671740000000    -0.233428   
O186     O      0.638810000000     0.397670000000     0.692940000000    -0.235373   
O187     O      0.672970000000     0.508910000000     0.676680000000    -0.230625   
O188     O      0.725930000000     0.505350000000     0.717730000000    -0.239131   
O189     O      0.746140000000     0.435530000000     0.722020000000    -0.233396   
O190     O      0.638710000000     0.496810000000     0.700880000000    -0.235452   
O191     O      0.726020000000     0.389060000000     0.676110000000    -0.23911    
O192     O      0.672820000000     0.385670000000     0.717170000000    -0.230709   
O193     O      0.375060000000     0.690100000000     0.391190000000    -0.229717   
O194     O      0.334400000000     0.763840000000     0.351650000000    -0.241013   
O195     O      0.338620000000     0.763790000000     0.417050000000    -0.240993   
O196     O      0.262180000000     0.750930000000     0.382500000000    -0.235683   
O197     O      0.298000000000     0.690120000000     0.377490000000    -0.229722   
O198     O      0.317840000000     0.826410000000     0.404380000000    -0.237012   
O199     O      0.410820000000     0.750930000000     0.386220000000    -0.235696   
O200     O      0.355080000000     0.826440000000     0.364340000000    -0.23697    
O201     O      0.375070000000     0.690130000000     0.641190000000    -0.229747   
O202     O      0.334400000000     0.763860000000     0.601640000000    -0.240897   
O203     O      0.338650000000     0.763830000000     0.667050000000    -0.240967   
O204     O      0.262190000000     0.750960000000     0.632500000000    -0.235572   
O205     O      0.298010000000     0.690150000000     0.627480000000    -0.229782   
O206     O      0.317850000000     0.826430000000     0.654370000000    -0.236881   
O207     O      0.410830000000     0.750950000000     0.636210000000    -0.235715   
O208     O      0.355100000000     0.826460000000     0.614330000000    -0.236969   
O209     O      0.426910000000     0.959030000000     0.472010000000    -0.233391   
O210     O      0.534350000000     0.897800000000     0.450820000000    -0.235299   
O211     O      0.500160000000     0.008990000000     0.467100000000    -0.230544   
O212     O      0.447180000000     0.005520000000     0.426020000000    -0.239143   
O213     O      0.427030000000     0.935700000000     0.421730000000    -0.233545   
O214     O      0.534370000000     0.996930000000     0.442870000000    -0.235284   
O215     O      0.447110000000     0.889220000000     0.467650000000    -0.239043   
O216     O      0.500280000000     0.885750000000     0.426610000000    -0.230611   
O217     O      0.500150000000     0.008990000000     0.717100000000    -0.230557   
O218     O      0.427020000000     0.935680000000     0.671740000000    -0.233519   
O219     O      0.426920000000     0.959010000000     0.722020000000    -0.233471   
O220     O      0.534350000000     0.897770000000     0.700820000000    -0.235328   
O221     O      0.500280000000     0.885740000000     0.676600000000    -0.230555   
O222     O      0.447120000000     0.889200000000     0.717660000000    -0.239288   
O223     O      0.534370000000     0.996900000000     0.692880000000    -0.235413   
O224     O      0.447170000000     0.005500000000     0.676030000000    -0.239116   
O225     O      0.410940000000     0.142950000000     0.507440000000    -0.235577   
O226     O      0.334250000000     0.129970000000     0.542050000000    -0.240905   
O227     O      0.338970000000     0.129930000000     0.476650000000    -0.240997   
O228     O      0.262300000000     0.142950000000     0.511270000000    -0.235559   
O229     O      0.298110000000     0.203750000000     0.516180000000    -0.229646   
O230     O      0.317920000000     0.067450000000     0.489340000000    -0.237073   
O231     O      0.375070000000     0.203730000000     0.502500000000    -0.229658   
O232     O      0.355390000000     0.067480000000     0.529380000000    -0.236973   
O233     O      0.298100000000     0.203780000000     0.266180000000    -0.22962    
O234     O      0.338940000000     0.129970000000     0.726640000000    -0.24082    
O235     O      0.334250000000     0.130000000000     0.292050000000    -0.240948   
O236     O      0.410930000000     0.142970000000     0.757430000000    -0.235544   
O237     O      0.375060000000     0.203760000000     0.752490000000    -0.229638   
O238     O      0.355380000000     0.067510000000     0.779370000000    -0.237007   
O239     O      0.262280000000     0.142970000000     0.761270000000    -0.235572   
O240     O      0.317910000000     0.067470000000     0.739340000000    -0.236826   
O241     O      0.246160000000     0.958860000000     0.796740000000    -0.233375   
O242     O      0.138830000000     0.897660000000     0.317940000000    -0.235332   
O243     O      0.172990000000     0.008910000000     0.801680000000    -0.230542   
O244     O      0.225950000000     0.005340000000     0.342730000000    -0.239076   
O245     O      0.246160000000     0.935510000000     0.347010000000    -0.233399   
O246     O      0.138720000000     0.996790000000     0.325880000000    -0.235419   
O247     O      0.226030000000     0.889050000000     0.301100000000    -0.239182   
O248     O      0.172840000000     0.885670000000     0.342170000000    -0.230673   
O249     O      0.246130000000     0.935530000000     0.597010000000    -0.233506   
O250     O      0.172960000000     0.008910000000     0.551680000000    -0.230579   
O251     O      0.172810000000     0.885670000000     0.592170000000    -0.230691   
O252     O      0.226000000000     0.889040000000     0.551110000000    -0.239066   
O253     O      0.246130000000     0.958850000000     0.546740000000    -0.233362   
O254     O      0.138800000000     0.897660000000     0.567940000000    -0.235356   
O255     O      0.225920000000     0.005350000000     0.592730000000    -0.239117   
O256     O      0.138690000000     0.996790000000     0.575880000000    -0.235266   


