data_structure

_audit_creation_method RASPA-1.0
_audit_creation_date 2023-5-22
_audit_author_name 'Poobodin Mano'

_cell_length_a    46.9121
_cell_length_b    46.8464
_cell_length_c    46.0828
_cell_angle_alpha 90
_cell_angle_beta  90
_cell_angle_gamma 90
_cell_volume      101274

_symmetry_cell_setting          triclinic
_symmetry_space_group_name_Hall 'P 1'
_symmetry_space_group_name_H-M  'P 1'
_symmetry_Int_Tables_number     1

_symmetry_equiv_pos_as_xyz 'x,y,z'

loop_
_atom_site_label
_atom_site_type_symbol
_atom_site_fract_x
_atom_site_fract_y
_atom_site_fract_z
_atom_site_charge
C1       C      0.906490000000     0.408230000000     0.918340000000     0.291706   
C2       C      0.835570000000     0.406540000000     0.843280000000     0.291828   
C3       C      0.908380000000     0.337910000000     0.846010000000     0.288569   
C4       C      0.837250000000     0.337160000000     0.918540000000     0.288747   
C5       C      0.085100000000     0.585700000000     0.097780000000     0.290245   
C6       C      0.159680000000     0.587550000000     0.168200000000     0.290831   
C7       C      0.159450000000     0.655010000000     0.095530000000     0.290073   
C8       C      0.085690000000     0.657430000000     0.166530000000     0.290477   
C9       C      0.336170000000     0.834960000000     0.916800000000     0.29002    
C10      C      0.405940000000     0.909390000000     0.918770000000     0.291995   
C11      C      0.407190000000     0.838570000000     0.845490000000     0.29084    
C12      C      0.335560000000     0.908570000000     0.846730000000     0.288834   
C13      C      0.658510000000     0.158290000000     0.096410000000     0.289225   
C14      C      0.587240000000     0.158700000000     0.167040000000     0.289745   
C15      C      0.585570000000     0.087310000000     0.096640000000     0.291251   
C16      C      0.658460000000     0.085930000000     0.167270000000     0.29071    
C17      C      0.339830000000     0.411170000000     0.347040000000     0.29055    
C18      C      0.409970000000     0.337260000000     0.346670000000     0.291651   
C19      C      0.407900000000     0.411270000000     0.418270000000     0.289988   
C20      C      0.338340000000     0.336980000000     0.416560000000     0.289357   
C21      C      0.587100000000     0.662250000000     0.666270000000     0.289857   
C22      C      0.658220000000     0.586720000000     0.665500000000     0.291407   
C23      C      0.585860000000     0.590140000000     0.596820000000     0.289238   
C24      C      0.659370000000     0.660740000000     0.596750000000     0.288585   
C25      C      0.838370000000     0.838470000000     0.418020000000     0.289816   
C26      C      0.910480000000     0.837470000000     0.346770000000     0.289177   
C27      C      0.837250000000     0.907310000000     0.345220000000     0.291057   
C28      C      0.910600000000     0.908860000000     0.417470000000     0.291777   
C29      C      0.089020000000     0.159260000000     0.669980000000     0.291862   
C30      C      0.157630000000     0.087420000000     0.668000000000     0.289658   
C31      C      0.088720000000     0.088100000000     0.595570000000     0.28874    
C32      C      0.159060000000     0.159940000000     0.595680000000     0.290002   
C33      C      0.929170000000     0.927060000000     0.435660000000    -0.0761725  
C34      C      0.951500000000     0.915010000000     0.451890000000     0.0139625  
C35      C      0.969020000000     0.932260000000     0.469050000000    -0.0606936  
C36      C      0.964630000000     0.961930000000     0.470320000000     0.0271153  
C37      C      0.942280000000     0.973940000000     0.454060000000    -0.0606973  
C38      C      0.924740000000     0.956700000000     0.436940000000     0.0139298  
C39      C      0.983240000000     0.980300000000     0.488550000000     0.00305893 
C40      C      0.991550000000     0.971460000000     0.516450000000    -0.0362112  
C41      C      0.008830000000     0.988870000000     0.533680000000    -0.0361203  
C42      C      0.018240000000     0.015520000000     0.523410000000     0.00311324 
C43      C      0.010020000000     0.024300000000     0.495460000000    -0.0361755  
C44      C      0.992720000000     0.006910000000     0.478240000000    -0.0361806  
C45      C      0.036430000000     0.034150000000     0.541830000000     0.0268725  
C46      C      0.058520000000     0.022440000000     0.558680000000    -0.0604009  
C47      C      0.075530000000     0.039970000000     0.576090000000     0.0132005  
C48      C      0.070830000000     0.069570000000     0.577030000000    -0.0752599  
C49      C      0.048800000000     0.081310000000     0.560170000000     0.0133724  
C50      C      0.031790000000     0.063790000000     0.542770000000    -0.0603366  
C51      C      0.677940000000     0.679010000000     0.578650000000    -0.0751347  
C52      C      0.691530000000     0.703000000000     0.590610000000     0.013124   
C53      C      0.709090000000     0.720230000000     0.573470000000    -0.060286   
C54      C      0.713340000000     0.713940000000     0.543930000000     0.0267926  
C55      C      0.699640000000     0.689940000000     0.532000000000    -0.0602869  
C56      C      0.682210000000     0.672640000000     0.549180000000     0.0133583  
C57      C      0.731930000000     0.732330000000     0.525610000000     0.00310472 
C58      C      0.731760000000     0.762180000000     0.528950000000    -0.0361041  
C59      C      0.749140000000     0.779440000000     0.511650000000    -0.0363276  
C60      C      0.766960000000     0.767270000000     0.490500000000     0.00307305 
C61      C      0.767170000000     0.737460000000     0.487140000000    -0.0363382  
C62      C      0.749930000000     0.720190000000     0.504540000000    -0.0361382  
C63      C      0.785220000000     0.785600000000     0.471920000000     0.026946   
C64      C      0.800720000000     0.808360000000     0.484020000000    -0.0606047  
C65      C      0.818040000000     0.825500000000     0.466530000000     0.0135015  
C66      C      0.820050000000     0.820370000000     0.436550000000    -0.0752444  
C67      C      0.804440000000     0.797710000000     0.424430000000     0.0135751  
C68      C      0.787290000000     0.780450000000     0.441950000000    -0.060645   
C69      C      0.319880000000     0.318410000000     0.434460000000    -0.0754538  
C70      C      0.290440000000     0.316860000000     0.429100000000     0.0134468  
C71      C      0.272970000000     0.299470000000     0.446170000000    -0.0603979  
C72      C      0.284530000000     0.283340000000     0.469070000000     0.0269372  
C73      C      0.314010000000     0.284910000000     0.474360000000    -0.0603823  
C74      C      0.331490000000     0.302200000000     0.457220000000     0.0134632  
C75      C      0.265900000000     0.265050000000     0.487440000000     0.00310476 
C76      C      0.238640000000     0.274460000000     0.495810000000    -0.0361057  
C77      C      0.221220000000     0.257350000000     0.513200000000    -0.0362531  
C78      C      0.230700000000     0.230480000000     0.522740000000     0.00305686 
C79      C      0.257910000000     0.221040000000     0.514380000000    -0.036267   
C80      C      0.275290000000     0.238080000000     0.496880000000    -0.036148   
C81      C      0.212290000000     0.212410000000     0.541450000000     0.0270182  
C82      C      0.183090000000     0.209380000000     0.535380000000    -0.0606305  
C83      C      0.165800000000     0.192300000000     0.552950000000     0.0134831  
C84      C      0.177330000000     0.178020000000     0.577070000000    -0.0760755  
C85      C      0.206500000000     0.181120000000     0.583200000000     0.0137574  
C86      C      0.223820000000     0.198070000000     0.565540000000    -0.0607517  
C87      C      0.425380000000     0.430220000000     0.436760000000    -0.0756231  
C88      C      0.436250000000     0.455980000000     0.425740000000     0.0136863  
C89      C      0.453040000000     0.473720000000     0.443130000000    -0.0604998  
C90      C      0.459470000000     0.466030000000     0.471920000000     0.0269565  
C91      C      0.448500000000     0.440270000000     0.482920000000    -0.0603787  
C92      C      0.431600000000     0.422600000000     0.465560000000     0.0135096  
C93      C      0.477720000000     0.484670000000     0.490310000000     0.00308766 
C94      C      0.501580000000     0.498620000000     0.478430000000    -0.0361239  
C95      C      0.518850000000     0.515950000000     0.495750000000    -0.0362339  
C96      C      0.512780000000     0.519640000000     0.525370000000     0.00308937 
C97      C      0.488950000000     0.505740000000     0.537270000000    -0.0363451  
C98      C      0.471580000000     0.488520000000     0.519930000000    -0.0360953  
C99      C      0.531320000000     0.537820000000     0.543800000000     0.0269091  
C100     C      0.541060000000     0.564380000000     0.533640000000    -0.0605718  
C101     C      0.558650000000     0.581430000000     0.550930000000     0.0135286  
C102     C      0.567000000000     0.572210000000     0.578680000000    -0.074979   
C103     C      0.557270000000     0.545670000000     0.588850000000     0.0133027  
C104     C      0.539540000000     0.528690000000     0.571630000000    -0.0604943  
C105     C      0.818570000000     0.924980000000     0.326620000000    -0.076265   
C106     C      0.792590000000     0.935540000000     0.337330000000     0.0139385  
C107     C      0.775110000000     0.952550000000     0.319880000000    -0.0607671  
C108     C      0.783300000000     0.959450000000     0.291380000000     0.0271134  
C109     C      0.809250000000     0.948780000000     0.280660000000    -0.0607381  
C110     C      0.826680000000     0.931690000000     0.298070000000     0.0137664  
C111     C      0.764930000000     0.977860000000     0.272970000000     0.00307776 
C112     C      0.735200000000     0.974080000000     0.272630000000    -0.0363028  
C113     C      0.717930000000     0.991500000000     0.255400000000    -0.0360864  
C114     C      0.729960000000     0.013150000000     0.238160000000     0.00301586 
C115     C      0.759700000000     0.016900000000     0.238520000000    -0.036089   
C116     C      0.776980000000     0.999440000000     0.255700000000    -0.0362404  
C117     C      0.711580000000     0.031780000000     0.219940000000     0.0270678  
C118     C      0.685340000000     0.041880000000     0.230540000000    -0.0605901  
C119     C      0.668090000000     0.059440000000     0.213440000000     0.0138439  
C120     C      0.676710000000     0.067330000000     0.185360000000    -0.0761591  
C121     C      0.702920000000     0.057270000000     0.174730000000     0.0136459  
C122     C      0.720150000000     0.039670000000     0.191820000000    -0.0605915  
C123     C      0.569050000000     0.177220000000     0.185270000000    -0.0752645  
C124     C      0.581260000000     0.195030000000     0.206420000000     0.0136454  
C125     C      0.564070000000     0.212400000000     0.223790000000    -0.0604386  
C126     C      0.534260000000     0.212280000000     0.220480000000     0.0269702  
C127     C      0.522090000000     0.194450000000     0.199280000000    -0.0604229  
C128     C      0.539300000000     0.177150000000     0.181840000000     0.0134751  
C129     C      0.515950000000     0.230620000000     0.239110000000     0.00310269 
C130     C      0.522220000000     0.234250000000     0.268730000000    -0.0360812  
C131     C      0.505050000000     0.251500000000     0.286230000000    -0.0362829  
C132     C      0.481130000000     0.265440000000     0.274560000000     0.00300387 
C133     C      0.474800000000     0.261790000000     0.244980000000    -0.0362026  
C134     C      0.492040000000     0.244630000000     0.227450000000    -0.0361575  
C135     C      0.462880000000     0.283760000000     0.293150000000     0.0271681  
C136     C      0.475180000000     0.302840000000     0.313090000000    -0.0608915  
C137     C      0.457990000000     0.320220000000     0.330460000000     0.0140641  
C138     C      0.428150000000     0.318780000000     0.328380000000    -0.07659    
C139     C      0.415830000000     0.299620000000     0.308550000000     0.0140677  
C140     C      0.433010000000     0.282350000000     0.291070000000    -0.060867   
C141     C      0.317170000000     0.926820000000     0.828410000000    -0.074933   
C142     C      0.319770000000     0.926310000000     0.798040000000     0.0132116  
C143     C      0.302410000000     0.943580000000     0.780740000000    -0.0604297  
C144     C      0.282010000000     0.961680000000     0.793430000000     0.0268249  
C145     C      0.279380000000     0.962130000000     0.823820000000    -0.0603937  
C146     C      0.296800000000     0.944920000000     0.841130000000     0.0132773  
C147     C      0.263570000000     0.980040000000     0.775040000000     0.0030973  
C148     C      0.275030000000     0.994720000000     0.751130000000    -0.036267   
C149     C      0.257710000000     0.012010000000     0.733820000000    -0.0361735  
C150     C      0.228500000000     0.015000000000     0.739970000000     0.003115   
C151     C      0.217040000000     0.000310000000     0.763890000000    -0.0361752  
C152     C      0.234380000000     0.983060000000     0.781240000000    -0.0362835  
C153     C      0.210090000000     0.033380000000     0.721500000000     0.0268508  
C154     C      0.213460000000     0.033640000000     0.691180000000    -0.0603729  
C155     C      0.196370000000     0.051110000000     0.673830000000     0.0135253  
C156     C      0.175470000000     0.068690000000     0.686390000000    -0.074827   
C157     C      0.171950000000     0.068350000000     0.716660000000     0.0132619  
C158     C      0.189080000000     0.050900000000     0.734030000000    -0.0602739  
C159     C      0.568720000000     0.680970000000     0.684100000000    -0.0757309  
C160     C      0.539180000000     0.682080000000     0.679220000000     0.0134027  
C161     C      0.521760000000     0.699430000000     0.696390000000    -0.0604249  
C162     C      0.533510000000     0.716150000000     0.718750000000     0.026965   
C163     C      0.563120000000     0.715160000000     0.723440000000    -0.0604515  
C164     C      0.580520000000     0.697720000000     0.706350000000     0.013632   
C165     C      0.514940000000     0.734380000000     0.737240000000     0.0030949  
C166     C      0.491910000000     0.749460000000     0.725110000000    -0.0361251  
C167     C      0.474380000000     0.766440000000     0.742550000000    -0.0363237  
C168     C      0.479560000000     0.768840000000     0.772490000000     0.00308452 
C169     C      0.502600000000     0.753840000000     0.784620000000    -0.0362919  
C170     C      0.520040000000     0.736760000000     0.767220000000    -0.0360699  
C171     C      0.460980000000     0.786890000000     0.791030000000     0.0270433  
C172     C      0.431200000000     0.786220000000     0.787760000000    -0.0606734  
C173     C      0.413710000000     0.802990000000     0.805450000000     0.0138011  
C174     C      0.425660000000     0.820910000000     0.826670000000    -0.0755847  
C175     C      0.455440000000     0.821720000000     0.829830000000     0.013692   
C176     C      0.472910000000     0.804830000000     0.812250000000    -0.0606514  
C177     C      0.423850000000     0.927990000000     0.937220000000    -0.0764479  
C178     C      0.433720000000     0.954350000000     0.926730000000     0.0141304  
C179     C      0.450820000000     0.971840000000     0.944070000000    -0.0607504  
C180     C      0.458530000000     0.963310000000     0.972260000000     0.0271733  
C181     C      0.448570000000     0.936930000000     0.982740000000    -0.0606554  
C182     C      0.431400000000     0.919480000000     0.965430000000     0.0139635  
C183     C      0.476970000000     0.981790000000     0.990610000000     0.00302378 
C184     C      0.500130000000     0.996600000000     0.978380000000    -0.0360746  
C185     C      0.517520000000     0.013890000000     0.995610000000    -0.0362036  
C186     C      0.512250000000     0.016700000000     0.025500000000     0.00305457 
C187     C      0.489120000000     0.001920000000     0.037750000000    -0.0363008  
C188     C      0.471660000000     0.984700000000     0.020500000000    -0.0360885  
C189     C      0.530880000000     0.034910000000     0.043830000000     0.0270961  
C190     C      0.539920000000     0.061820000000     0.033960000000    -0.0607406  
C191     C      0.557580000000     0.078890000000     0.051160000000     0.0139341  
C192     C      0.566670000000     0.069360000000     0.078550000000    -0.0759241  
C193     C      0.557640000000     0.042470000000     0.088440000000     0.0137945  
C194     C      0.539880000000     0.025450000000     0.071300000000    -0.0607211  
C195     C      0.928680000000     0.818990000000     0.328490000000    -0.0751956  
C196     C      0.925140000000     0.789200000000     0.328810000000     0.013258   
C197     C      0.942100000000     0.771740000000     0.311300000000    -0.060442   
C198     C      0.962960000000     0.783690000000     0.293050000000     0.0268907  
C199     C      0.966530000000     0.813490000000     0.292810000000    -0.0604853  
C200     C      0.949590000000     0.830950000000     0.310360000000     0.0134252  
C201     C      0.980840000000     0.765120000000     0.274270000000     0.00313759 
C202     C      0.991810000000     0.739220000000     0.284900000000    -0.0362557  
C203     C      0.008580000000     0.721750000000     0.267230000000    -0.0361198  
C204     C      0.014770000000     0.729740000000     0.238510000000     0.00306555 
C205     C      0.003800000000     0.755640000000     0.227870000000    -0.0362099  
C206     C      0.987030000000     0.773130000000     0.245550000000    -0.0362638  
C207     C      0.032720000000     0.711200000000     0.219760000000     0.0270077  
C208     C      0.029340000000     0.681370000000     0.220170000000    -0.0606255  
C209     C      0.046420000000     0.663920000000     0.202760000000     0.0136824  
C210     C      0.067270000000     0.675910000000     0.184580000000    -0.0757527  
C211     C      0.070580000000     0.705720000000     0.184040000000     0.0136107  
C212     C      0.053490000000     0.723170000000     0.201430000000    -0.0605329  
C213     C      0.178180000000     0.672540000000     0.076850000000    -0.0755925  
C214     C      0.198070000000     0.691380000000     0.089200000000     0.0136611  
C215     C      0.215480000000     0.708250000000     0.071550000000    -0.060577   
C216     C      0.213400000000     0.706650000000     0.041150000000     0.0269768  
C217     C      0.193600000000     0.687660000000     0.028820000000    -0.0605737  
C218     C      0.176180000000     0.670790000000     0.046480000000     0.0135357  
C219     C      0.231620000000     0.724930000000     0.022400000000     0.00307778 
C220     C      0.260450000000     0.729530000000     0.029310000000    -0.0362431  
C221     C      0.277450000000     0.747040000000     0.011890000000    -0.0361394  
C222     C      0.266020000000     0.760380000000     0.987160000000     0.00306204 
C223     C      0.237230000000     0.755660000000     0.980170000000    -0.0361592  
C224     C      0.220240000000     0.738140000000     0.997580000000    -0.0361378  
C225     C      0.283980000000     0.779370000000     0.968880000000     0.0269838  
C226     C      0.312350000000     0.772040000000     0.962430000000    -0.0605762  
C227     C      0.329280000000     0.790030000000     0.945450000000     0.013667   
C228     C      0.318210000000     0.815760000000     0.934550000000    -0.0758405  
C229     C      0.289840000000     0.823070000000     0.940900000000     0.0135034  
C230     C      0.272920000000     0.805080000000     0.957880000000    -0.0605599  
C231     C      0.321900000000     0.430090000000     0.328960000000    -0.0753689  
C232     C      0.324510000000     0.429840000000     0.298580000000     0.0135746  
C233     C      0.307340000000     0.447450000000     0.281450000000    -0.0604308  
C234     C      0.287160000000     0.465690000000     0.294300000000     0.0269448  
C235     C      0.284660000000     0.466010000000     0.324710000000    -0.0605759  
C236     C      0.301850000000     0.448410000000     0.341850000000     0.0136833  
C237     C      0.268640000000     0.484120000000     0.276030000000     0.00308449 
C238     C      0.279830000000     0.498360000000     0.251710000000    -0.0362396  
C239     C      0.262330000000     0.515410000000     0.234330000000    -0.036237   
C240     C      0.233230000000     0.518610000000     0.240860000000     0.00307255 
C241     C      0.222070000000     0.504450000000     0.265240000000    -0.0361936  
C242     C      0.239570000000     0.487410000000     0.282620000000    -0.0361639  
C243     C      0.214540000000     0.536500000000     0.222220000000     0.0270365  
C244     C      0.217090000000     0.535620000000     0.191830000000    -0.0606452  
C245     C      0.199330000000     0.552240000000     0.174290000000     0.0137811  
C246     C      0.178640000000     0.570120000000     0.186750000000    -0.0758703  
C247     C      0.176130000000     0.571100000000     0.217120000000     0.0137284  
C248     C      0.193870000000     0.554470000000     0.234660000000    -0.0606322  
C249     C      0.927260000000     0.319700000000     0.828180000000    -0.07482    
C250     C      0.956320000000     0.326360000000     0.825120000000     0.013195   
C251     C      0.974170000000     0.309060000000     0.808360000000    -0.0604527  
C252     C      0.963370000000     0.284620000000     0.794480000000     0.0268164  
C253     C      0.934320000000     0.277960000000     0.797580000000    -0.0604113  
C254     C      0.916430000000     0.295360000000     0.814180000000     0.0132046  
C255     C      0.982330000000     0.266140000000     0.776800000000     0.00315774 
C256     C      0.002060000000     0.278200000000     0.757420000000    -0.0363309  
C257     C      0.019620000000     0.260780000000     0.740490000000    -0.0359707  
C258     C      0.017970000000     0.230870000000     0.742670000000     0.00300783 
C259     C      0.998370000000     0.218840000000     0.762270000000    -0.0360738  
C260     C      0.980710000000     0.236270000000     0.779070000000    -0.0363853  
C261     C      0.036380000000     0.212300000000     0.724350000000     0.027085   
C262     C      0.064890000000     0.219790000000     0.718690000000    -0.0605743  
C263     C      0.082020000000     0.202540000000     0.701120000000     0.0138487  
C264     C      0.071070000000     0.177330000000     0.688930000000    -0.076218   
C265     C      0.042680000000     0.169690000000     0.694740000000     0.014039   
C266     C      0.025520000000     0.187000000000     0.712180000000    -0.0606168  
C267     C      0.676970000000     0.176740000000     0.078370000000    -0.0753043  
C268     C      0.680610000000     0.205720000000     0.085300000000     0.0132306  
C269     C      0.698110000000     0.223140000000     0.068290000000    -0.0604304  
C270     C      0.712390000000     0.211940000000     0.043990000000     0.0268836  
C271     C      0.708720000000     0.182940000000     0.037080000000    -0.0604561  
C272     C      0.691190000000     0.165530000000     0.054070000000     0.013419   
C273     C      0.731020000000     0.230450000000     0.025910000000     0.00307081 
C274     C      0.722710000000     0.258460000000     0.018950000000    -0.036196   
C275     C      0.740170000000     0.275800000000     0.001820000000    -0.0362148  
C276     C      0.766340000000     0.265530000000     0.991240000000     0.00314624 
C277     C      0.774690000000     0.237550000000     0.998270000000    -0.0362863  
C278     C      0.757240000000     0.220220000000     0.015400000000    -0.0361732  
C279     C      0.784770000000     0.283880000000     0.972780000000     0.0268287  
C280     C      0.788490000000     0.312960000000     0.979320000000    -0.0604428  
C281     C      0.805630000000     0.330240000000     0.961790000000     0.0133445  
C282     C      0.819400000000     0.318820000000     0.937330000000    -0.075063   
C283     C      0.815780000000     0.289740000000     0.930830000000     0.013136   
C284     C      0.798670000000     0.272460000000     0.948360000000    -0.0603547  
C285     C      0.817260000000     0.424010000000     0.824110000000    -0.0766756  
C286     C      0.827760000000     0.434510000000     0.797630000000     0.0140919  
C287     C      0.810560000000     0.451350000000     0.779720000000    -0.0607432  
C288     C      0.782480000000     0.458100000000     0.787930000000     0.0271831  
C289     C      0.771970000000     0.447460000000     0.814380000000    -0.0607247  
C290     C      0.789160000000     0.430600000000     0.832260000000     0.0139882  
C291     C      0.764300000000     0.476400000000     0.769140000000     0.00302532 
C292     C      0.775830000000     0.500410000000     0.755060000000    -0.0360695  
C293     C      0.758640000000     0.517890000000     0.737810000000    -0.0361797  
C294     C      0.729500000000     0.511820000000     0.734270000000     0.00306792 
C295     C      0.718000000000     0.487730000000     0.748190000000    -0.0362484  
C296     C      0.735200000000     0.470210000000     0.765390000000    -0.0361326  
C297     C      0.711100000000     0.530740000000     0.716410000000     0.0271233  
C298     C      0.720910000000     0.541620000000     0.689780000000    -0.0607514  
C299     C      0.703690000000     0.559680000000     0.673160000000     0.0137417  
C300     C      0.676330000000     0.567310000000     0.682860000000    -0.0762285  
C301     C      0.666480000000     0.556380000000     0.709430000000     0.0139908  
C302     C      0.683670000000     0.538270000000     0.726000000000    -0.0606879  
C303     C      0.066240000000     0.567410000000     0.080000000000    -0.0755866  
C304     C      0.067350000000     0.537550000000     0.082610000000     0.0136081  
C305     C      0.049760000000     0.520240000000     0.065590000000    -0.0604729  
C306     C      0.030700000000     0.532400000000     0.045540000000     0.0269706  
C307     C      0.029550000000     0.562300000000     0.043040000000    -0.0604566  
C308     C      0.047110000000     0.579610000000     0.060090000000     0.0136521  
C309     C      0.012220000000     0.513980000000     0.027180000000     0.00312038 
C310     C      0.022970000000     0.488670000000     0.014940000000    -0.0361303  
C311     C      0.005690000000     0.471440000000     0.997530000000    -0.0361994  
C312     C      0.977260000000     0.479130000000     0.991890000000     0.00306513 
C313     C      0.966480000000     0.504400000000     0.004160000000    -0.0361982  
C314     C      0.983750000000     0.521610000000     0.021620000000    -0.0362044  
C315     C      0.958960000000     0.460930000000     0.973160000000     0.0271227  
C316     C      0.959650000000     0.431030000000     0.975750000000    -0.0607285  
C317     C      0.942550000000     0.413920000000     0.958010000000     0.0140044  
C318     C      0.924450000000     0.426330000000     0.937250000000    -0.0759304  
C319     C      0.923730000000     0.456210000000     0.934660000000     0.0139032  
C320     C      0.940770000000     0.473330000000     0.952440000000    -0.060695   
Cd1      Cd     0.871540000000     0.372990000000     0.881290000000     0.505618   
Cd2      Cd     0.122400000000     0.621350000000     0.132050000000     0.506153   
Cd3      Cd     0.371320000000     0.872860000000     0.882500000000     0.505742   
Cd4      Cd     0.622690000000     0.122200000000     0.131840000000     0.5057     
Cd5      Cd     0.374390000000     0.373740000000     0.382060000000     0.505929   
Cd6      Cd     0.622920000000     0.625050000000     0.631910000000     0.50542    
Cd7      Cd     0.874270000000     0.873510000000     0.381810000000     0.505879   
Cd8      Cd     0.123460000000     0.124320000000     0.632040000000     0.505459   
H1       H      0.955500000000     0.892250000000     0.451300000000     0.044661   
H2       H      0.986260000000     0.922390000000     0.481040000000     0.0486198  
H3       H      0.938090000000     0.996660000000     0.454860000000     0.0486673  
H4       H      0.907660000000     0.966620000000     0.424750000000     0.0447398  
H5       H      0.984270000000     0.951280000000     0.525190000000     0.0415078  
H6       H      0.014410000000     0.981650000000     0.555280000000     0.041417   
H7       H      0.017280000000     0.044490000000     0.486710000000     0.0414453  
H8       H      0.987080000000     0.014150000000     0.456670000000     0.0414995  
H9       H      0.062910000000     0.999750000000     0.558170000000     0.0484542  
H10      H      0.092400000000     0.030290000000     0.588770000000     0.0447209  
H11      H      0.044580000000     0.104040000000     0.560500000000     0.0452639  
H12      H      0.014710000000     0.073450000000     0.530360000000     0.0485086  
H13      H      0.688750000000     0.708400000000     0.613290000000     0.0447661  
H14      H      0.719620000000     0.738290000000     0.583480000000     0.0483152  
H15      H      0.702060000000     0.684700000000     0.509240000000     0.0482813  
H16      H      0.671920000000     0.654370000000     0.539280000000     0.0450968  
H17      H      0.717840000000     0.772300000000     0.544620000000     0.0412828  
H18      H      0.748250000000     0.802380000000     0.514490000000     0.0416038  
H19      H      0.780990000000     0.727440000000     0.471300000000     0.0415636  
H20      H      0.750990000000     0.697270000000     0.501710000000     0.0412602  
H21      H      0.799770000000     0.812670000000     0.507090000000     0.0487104  
H22      H      0.829830000000     0.842790000000     0.476510000000     0.0447032  
H23      H      0.805520000000     0.793220000000     0.401400000000     0.0451251  
H24      H      0.775350000000     0.763270000000     0.431960000000     0.0486561  
H25      H      0.280860000000     0.329000000000     0.411630000000     0.0447343  
H26      H      0.250430000000     0.298450000000     0.441200000000     0.0483815  
H27      H      0.323580000000     0.273110000000     0.492070000000     0.0483953  
H28      H      0.354090000000     0.303040000000     0.461970000000     0.0451143  
H29      H      0.230910000000     0.295290000000     0.489340000000     0.0413439  
H30      H      0.200500000000     0.265380000000     0.519620000000     0.0415608  
H31      H      0.265650000000     0.200260000000     0.521040000000     0.0415514  
H32      H      0.295950000000     0.229950000000     0.490440000000     0.0413105  
H33      H      0.173650000000     0.219930000000     0.516790000000     0.0486346  
H34      H      0.143400000000     0.190300000000     0.547630000000     0.0447558  
H35      H      0.216010000000     0.170420000000     0.601650000000     0.0447946  
H36      H      0.246180000000     0.200240000000     0.570960000000     0.0487076  
H37      H      0.431720000000     0.462510000000     0.403660000000     0.0445772  
H38      H      0.460770000000     0.493600000000     0.434090000000     0.0484033  
H39      H      0.453350000000     0.433470000000     0.504830000000     0.0484234  
H40      H      0.423630000000     0.402830000000     0.474650000000     0.0450706  
H41      H      0.507230000000     0.495760000000     0.455840000000     0.041405   
H42      H      0.537300000000     0.526070000000     0.486040000000     0.0416004  
H43      H      0.483500000000     0.508480000000     0.559940000000     0.0415688  
H44      H      0.453120000000     0.478490000000     0.529690000000     0.0412534  
H45      H      0.534840000000     0.572120000000     0.512420000000     0.0486797  
H46      H      0.565770000000     0.601800000000     0.542490000000     0.0452627  
H47      H      0.563360000000     0.537970000000     0.610130000000     0.0446941  
H48      H      0.532610000000     0.508200000000     0.579930000000     0.0486454  
H49      H      0.785770000000     0.930790000000     0.359260000000     0.044621   
H50      H      0.755400000000     0.960700000000     0.328880000000     0.0486927  
H51      H      0.815990000000     0.953410000000     0.258680000000     0.048623   
H52      H      0.846550000000     0.923820000000     0.289170000000     0.0447711  
H53      H      0.725310000000     0.957380000000     0.285380000000     0.0415052  
H54      H      0.695150000000     0.987740000000     0.255280000000     0.0413944  
H55      H      0.769630000000     0.033660000000     0.225870000000     0.0413607  
H56      H      0.799770000000     0.003170000000     0.255820000000     0.0415628  
H57      H      0.678280000000     0.036530000000     0.252250000000     0.0485294  
H58      H      0.648050000000     0.066930000000     0.222280000000     0.0448434  
H59      H      0.710110000000     0.062890000000     0.153130000000     0.0446557  
H60      H      0.740050000000     0.031970000000     0.182830000000     0.0484699  
H61      H      0.604140000000     0.195640000000     0.209510000000     0.0452095  
H62      H      0.574200000000     0.226180000000     0.239590000000     0.0484548  
H63      H      0.499200000000     0.193510000000     0.196410000000     0.0484266  
H64      H      0.529230000000     0.163570000000     0.165800000000     0.0446088  
H65      H      0.540180000000     0.223400000000     0.278550000000     0.0413674  
H66      H      0.510250000000     0.253580000000     0.309030000000     0.0415861  
H67      H      0.456740000000     0.272580000000     0.235260000000     0.0415815  
H68      H      0.486850000000     0.242700000000     0.204640000000     0.0413523  
H69      H      0.498120000000     0.304640000000     0.314970000000     0.0487854  
H70      H      0.468130000000     0.334810000000     0.345500000000     0.0445269  
H71      H      0.392890000000     0.297980000000     0.306470000000     0.044733   
H72      H      0.422910000000     0.267630000000     0.276140000000     0.0487527  
H73      H      0.335220000000     0.912540000000     0.787590000000     0.0447937  
H74      H      0.304730000000     0.942490000000     0.757380000000     0.0484803  
H75      H      0.264090000000     0.976080000000     0.834270000000     0.0485647  
H76      H      0.294310000000     0.945840000000     0.864480000000     0.0452395  
H77      H      0.297520000000     0.993190000000     0.746040000000     0.0414909  
H78      H      0.267330000000     0.023400000000     0.715870000000     0.0413909  
H79      H      0.194550000000     0.001780000000     0.768980000000     0.0413324  
H80      H      0.224830000000     0.971710000000     0.799260000000     0.0414749  
H81      H      0.229150000000     0.020100000000     0.680780000000     0.0483803  
H82      H      0.199540000000     0.050810000000     0.650550000000     0.0452957  
H83      H      0.156080000000     0.081720000000     0.727000000000     0.0446686  
H84      H      0.186160000000     0.051500000000     0.757340000000     0.0484136  
H85      H      0.529440000000     0.669340000000     0.662310000000     0.0445018  
H86      H      0.499010000000     0.699350000000     0.692430000000     0.0483918  
H87      H      0.572950000000     0.728080000000     0.740160000000     0.0484662  
H88      H      0.603230000000     0.697440000000     0.710560000000     0.0451611  
H89      H      0.487630000000     0.748490000000     0.702040000000     0.0412721  
H90      H      0.457020000000     0.778050000000     0.732510000000     0.0415445  
H91      H      0.506880000000     0.754930000000     0.807690000000     0.0416704  
H92      H      0.537260000000     0.725060000000     0.777390000000     0.0414194  
H93      H      0.421370000000     0.772390000000     0.771800000000     0.0487036  
H94      H      0.390830000000     0.801870000000     0.802510000000     0.0449434  
H95      H      0.465300000000     0.835350000000     0.845950000000     0.0447342  
H96      H      0.495800000000     0.806060000000     0.815070000000     0.0487149  
H97      H      0.428170000000     0.961560000000     0.905120000000     0.0445786  
H98      H      0.457750000000     0.992200000000     0.935470000000     0.0485471  
H99      H      0.454410000000     0.929520000000     0.004190000000     0.0485073  
H100     H      0.424210000000     0.899230000000     0.974100000000     0.0446071  
H101     H      0.505130000000     0.994470000000     0.955540000000     0.0414083  
H102     H      0.535430000000     0.024680000000     0.985610000000     0.0415875  
H103     H      0.484270000000     0.003970000000     0.060630000000     0.041566   
H104     H      0.453740000000     0.973980000000     0.030540000000     0.0413214  
H105     H      0.533090000000     0.069840000000     0.013040000000     0.0487205  
H106     H      0.564130000000     0.099540000000     0.042950000000     0.0448561  
H107     H      0.564310000000     0.034510000000     0.109440000000     0.0446529  
H108     H      0.533540000000     0.004690000000     0.079380000000     0.0487017  
H109     H      0.909160000000     0.779340000000     0.342490000000     0.0448754  
H110     H      0.938580000000     0.748900000000     0.311740000000     0.0484615  
H111     H      0.982640000000     0.823330000000     0.279280000000     0.0485774  
H112     H      0.952880000000     0.853820000000     0.309670000000     0.0450259  
H113     H      0.987790000000     0.732650000000     0.307060000000     0.0414181  
H114     H      0.017080000000     0.702160000000     0.276240000000     0.0414407  
H115     H      0.007810000000     0.762220000000     0.205720000000     0.0414096  
H116     H      0.978550000000     0.792720000000     0.236560000000     0.0415194  
H117     H      0.013280000000     0.671500000000     0.233740000000     0.0485275  
H118     H      0.043300000000     0.641030000000     0.203600000000     0.0447864  
H119     H      0.086520000000     0.715600000000     0.170320000000     0.0448935  
H120     H      0.056880000000     0.746030000000     0.200870000000     0.0485809  
H121     H      0.200070000000     0.693280000000     0.112540000000     0.0449279  
H122     H      0.230250000000     0.722920000000     0.081750000000     0.0486309  
H123     H      0.191720000000     0.685620000000     0.005490000000     0.0486471  
H124     H      0.161130000000     0.656400000000     0.036300000000     0.0448748  
H125     H      0.269960000000     0.719440000000     0.048100000000     0.0413441  
H126     H      0.299470000000     0.750450000000     0.018050000000     0.0413992  
H127     H      0.227830000000     0.765370000000     0.961100000000     0.0413551  
H128     H      0.198040000000     0.735290000000     0.991800000000     0.041444   
H129     H      0.321410000000     0.752210000000     0.970260000000     0.0486106  
H130     H      0.351040000000     0.783760000000     0.940850000000     0.0447571  
H131     H      0.280710000000     0.842800000000     0.932900000000     0.0448939  
H132     H      0.251280000000     0.811560000000     0.962760000000     0.0486027  
H133     H      0.339710000000     0.415910000000     0.287980000000     0.0449206  
H134     H      0.309550000000     0.446420000000     0.258070000000     0.0485139  
H135     H      0.269570000000     0.480070000000     0.335300000000     0.0485006  
H136     H      0.299390000000     0.449160000000     0.365210000000     0.0448246  
H137     H      0.302230000000     0.496630000000     0.246290000000     0.041389   
H138     H      0.271690000000     0.526380000000     0.215970000000     0.0413578  
H139     H      0.199660000000     0.506110000000     0.270620000000     0.0414921  
H140     H      0.230190000000     0.476380000000     0.300940000000     0.0414655  
H141     H      0.232540000000     0.521740000000     0.181540000000     0.0485501  
H142     H      0.201750000000     0.550960000000     0.150950000000     0.0447504  
H143     H      0.160440000000     0.584740000000     0.227390000000     0.044797   
H144     H      0.191600000000     0.555930000000     0.258000000000     0.0485444  
H145     H      0.965300000000     0.344950000000     0.835680000000     0.044759   
H146     H      0.996520000000     0.314590000000     0.806600000000     0.0486437  
H147     H      0.925310000000     0.259450000000     0.786880000000     0.0486355  
H148     H      0.894140000000     0.289660000000     0.816100000000     0.0453406  
H149     H      0.003550000000     0.301150000000     0.754920000000     0.0416269  
H150     H      0.034130000000     0.270780000000     0.725290000000     0.0413057  
H151     H      0.996860000000     0.195920000000     0.764890000000     0.0412354  
H152     H      0.966010000000     0.226350000000     0.794130000000     0.0415744  
H153     H      0.074090000000     0.238890000000     0.728050000000     0.0484283  
H154     H      0.103860000000     0.208940000000     0.697140000000     0.0445116  
H155     H      0.033580000000     0.150450000000     0.685550000000     0.0447481  
H156     H      0.003560000000     0.180780000000     0.715710000000     0.0484641  
H157     H      0.669990000000     0.214980000000     0.103930000000     0.0447759  
H158     H      0.700760000000     0.245300000000     0.074420000000     0.0484829  
H159     H      0.719110000000     0.173740000000     0.018290000000     0.0484801  
H160     H      0.688770000000     0.143300000000     0.048120000000     0.0451246  
H161     H      0.702460000000     0.266850000000     0.026340000000     0.041443   
H162     H      0.732900000000     0.297100000000     0.996440000000     0.0414916  
H163     H      0.794920000000     0.229150000000     0.990840000000     0.0413702  
H164     H      0.764480000000     0.198900000000     0.020750000000     0.0413619  
H165     H      0.778370000000     0.322330000000     0.998170000000     0.0485398  
H166     H      0.808060000000     0.352560000000     0.967410000000     0.0449192  
H167     H      0.826050000000     0.280320000000     0.912080000000     0.0450315  
H168     H      0.795960000000     0.250230000000     0.942510000000     0.0484046  
H169     H      0.849300000000     0.429720000000     0.790690000000     0.0444971  
H170     H      0.819200000000     0.458880000000     0.759310000000     0.0485635  
H171     H      0.750590000000     0.452570000000     0.821560000000     0.0485737  
H172     H      0.780460000000     0.422910000000     0.852580000000     0.0446521  
H173     H      0.798050000000     0.506050000000     0.757840000000     0.0414765  
H174     H      0.768060000000     0.536520000000     0.727720000000     0.0415618  
H175     H      0.695730000000     0.482220000000     0.745530000000     0.0414986  
H176     H      0.725740000000     0.451630000000     0.775530000000     0.0413545  
H177     H      0.741810000000     0.535960000000     0.681640000000     0.0486567  
H178     H      0.711860000000     0.567700000000     0.652750000000     0.0444176  
H179     H      0.645520000000     0.561910000000     0.717530000000     0.0449708  
H180     H      0.675620000000     0.530530000000     0.746580000000     0.0486922  
H181     H      0.081790000000     0.527490000000     0.097840000000     0.0448552  
H182     H      0.050900000000     0.497310000000     0.068350000000     0.048534   
H183     H      0.015380000000     0.572360000000     0.027550000000     0.0484872  
H184     H      0.045820000000     0.602560000000     0.057510000000     0.044874   
H185     H      0.044930000000     0.482400000000     0.018390000000     0.0414919  
H186     H      0.014760000000     0.452340000000     0.988050000000     0.0415603  
H187     H      0.944540000000     0.510700000000     0.000590000000     0.0414988  
H188     H      0.974660000000     0.540710000000     0.031080000000     0.0413832  
H189     H      0.973190000000     0.420850000000     0.991730000000     0.048657   
H190     H      0.943540000000     0.390960000000     0.960580000000     0.044763   
H191     H      0.910050000000     0.466420000000     0.918820000000     0.0447314  
H192     H      0.940000000000     0.496270000000     0.949670000000     0.0487039  
O1       O      0.861240000000     0.401080000000     0.837070000000    -0.239543   
O2       O      0.849600000000     0.327480000000     0.896220000000    -0.23515    
O3       O      0.890580000000     0.418820000000     0.898940000000    -0.239162   
O4       O      0.917920000000     0.358580000000     0.860790000000    -0.237224   
O5       O      0.881790000000     0.333570000000     0.847470000000    -0.233283   
O6       O      0.906220000000     0.381310000000     0.920590000000    -0.237108   
O7       O      0.826520000000     0.396410000000     0.866970000000    -0.239662   
O8       O      0.840840000000     0.363430000000     0.923730000000    -0.236527   
O9       O      0.140700000000     0.603610000000     0.178840000000    -0.238182   
O10      O      0.104770000000     0.667630000000     0.150150000000    -0.237783   
O11      O      0.103210000000     0.575260000000     0.115140000000    -0.237906   
O12      O      0.140890000000     0.638360000000     0.085030000000    -0.237375   
O13      O      0.160920000000     0.656010000000     0.122930000000    -0.236709   
O14      O      0.084190000000     0.612660000000     0.096340000000    -0.236842   
O15      O      0.161450000000     0.587130000000     0.140810000000    -0.23755    
O16      O      0.083470000000     0.630520000000     0.166840000000    -0.237347   
O17      O      0.395640000000     0.886180000000     0.928060000000    -0.239553   
O18      O      0.353400000000     0.891370000000     0.835850000000    -0.236717   
O19      O      0.361890000000     0.829200000000     0.911050000000    -0.237843   
O20      O      0.417450000000     0.856170000000     0.863520000000    -0.238963   
O21      O      0.380280000000     0.836870000000     0.844530000000    -0.235204   
O22      O      0.326720000000     0.858170000000     0.906650000000    -0.237293   
O23      O      0.400180000000     0.915730000000     0.892750000000    -0.238886   
O24      O      0.334310000000     0.909270000000     0.874150000000    -0.234227   
O25      O      0.577010000000     0.143670000000     0.146720000000    -0.238801   
O26      O      0.634440000000     0.094680000000     0.175950000000    -0.237469   
O27      O      0.645490000000     0.167780000000     0.118420000000    -0.237919   
O28      O      0.592980000000     0.112140000000     0.088900000000    -0.236587   
O29      O      0.595290000000     0.078650000000     0.120690000000    -0.239453   
O30      O      0.654930000000     0.132120000000     0.090760000000    -0.23476    
O31      O      0.613880000000     0.156890000000     0.170970000000    -0.233632   
O32      O      0.665970000000     0.093960000000     0.142220000000    -0.239151   
O33      O      0.383090000000     0.335330000000     0.346450000000    -0.23863    
O34      O      0.365100000000     0.337540000000     0.419770000000    -0.235838   
O35      O      0.357850000000     0.394290000000     0.335920000000    -0.237486   
O36      O      0.403820000000     0.416400000000     0.391640000000    -0.237891   
O37      O      0.396400000000     0.388870000000     0.428140000000    -0.236065   
O38      O      0.337870000000     0.410800000000     0.374440000000    -0.235868   
O39      O      0.420410000000     0.356000000000     0.363310000000    -0.239939   
O40      O      0.328240000000     0.353350000000     0.397310000000    -0.237219   
O41      O      0.633960000000     0.594750000000     0.674220000000    -0.237202   
O42      O      0.648650000000     0.637850000000     0.587140000000    -0.23425    
O43      O      0.613360000000     0.659150000000     0.671580000000    -0.235038   
O44      O      0.595450000000     0.581520000000     0.620960000000    -0.23823    
O45      O      0.593390000000     0.614920000000     0.589000000000    -0.232788   
O46      O      0.577400000000     0.648240000000     0.645000000000    -0.240006   
O47      O      0.666170000000     0.596360000000     0.641170000000    -0.240659   
O48      O      0.653270000000     0.667150000000     0.622690000000    -0.237527   
O49      O      0.891150000000     0.827300000000     0.362870000000    -0.23631    
O50      O      0.890270000000     0.919160000000     0.402800000000    -0.23973    
O51      O      0.838860000000     0.835740000000     0.390700000000    -0.234377   
O52      O      0.831150000000     0.901960000000     0.371370000000    -0.238799   
O53      O      0.860400000000     0.896930000000     0.335950000000    -0.238055   
O54      O      0.854490000000     0.857480000000     0.428600000000    -0.237823   
O55      O      0.913180000000     0.864330000000     0.346980000000    -0.235852   
O56      O      0.914150000000     0.882140000000     0.415690000000    -0.238091   
O57      O      0.138110000000     0.102920000000     0.678580000000    -0.238425   
O58      O      0.133190000000     0.155230000000     0.589690000000    -0.238198   
O59      O      0.113830000000     0.166720000000     0.662350000000    -0.239647   
O60      O      0.108330000000     0.078100000000     0.611410000000    -0.237825   
O61      O      0.085220000000     0.114850000000     0.596560000000    -0.234283   
O62      O      0.080270000000     0.135590000000     0.660220000000    -0.238029   
O63      O      0.161200000000     0.088950000000     0.640810000000    -0.232665   
O64      O      0.168440000000     0.148250000000     0.618470000000    -0.237645   


