data_structure

_audit_creation_method RASPA-1.0
_audit_creation_date 2023-6-5
_audit_author_name 'Poobodin Mano'

_cell_length_a    57.419
_cell_length_b    57.634
_cell_length_c    32.1325
_cell_angle_alpha 90.0318
_cell_angle_beta  89.9177
_cell_angle_gamma 90
_cell_volume      106336

_symmetry_cell_setting          triclinic
_symmetry_space_group_name_Hall 'P 1'
_symmetry_space_group_name_H-M  'P 1'
_symmetry_Int_Tables_number     1

_symmetry_equiv_pos_as_xyz 'x,y,z'

loop_
_atom_site_label
_atom_site_type_symbol
_atom_site_fract_x
_atom_site_fract_y
_atom_site_fract_z
_atom_site_charge
C1       C      0.326080000000     0.327180000000     0.054450000000     0.290466   
C2       C      0.397290000000     0.342500000000     0.977130000000     0.289164   
C3       C      0.327100000000     0.326680000000     0.909360000000     0.288939   
C4       C      0.340670000000     0.397630000000     0.985360000000     0.290327   
C5       C      0.346610000000     0.647110000000     0.983600000000     0.28735    
C6       C      0.328350000000     0.719490000000     0.049830000000     0.288581   
C7       C      0.401970000000     0.700450000000     0.980730000000     0.28942    
C8       C      0.329480000000     0.718910000000     0.911180000000     0.28826    
C9       C      0.647470000000     0.338000000000     0.984360000000     0.290451   
C10      C      0.718020000000     0.326960000000     0.910450000000     0.290517   
C11      C      0.702340000000     0.397030000000     0.985430000000     0.290292   
C12      C      0.718520000000     0.327180000000     0.056350000000     0.289998   
C13      C      0.708520000000     0.646620000000     0.984280000000     0.288262   
C14      C      0.724870000000     0.719690000000     0.912880000000     0.289037   
C15      C      0.652870000000     0.699600000000     0.981590000000     0.288096   
C16      C      0.725220000000     0.719550000000     0.051660000000     0.28796    
C17      C      0.847100000000     0.150300000000     0.482740000000     0.289489   
C18      C      0.827900000000     0.222480000000     0.553160000000     0.288118   
C19      C      0.900290000000     0.206000000000     0.487710000000     0.289227   
C20      C      0.828940000000     0.221890000000     0.411700000000     0.290597   
C21      C      0.827440000000     0.828620000000     0.552930000000     0.289979   
C22      C      0.899480000000     0.845720000000     0.478630000000     0.28963    
C23      C      0.828660000000     0.828600000000     0.410450000000     0.288016   
C24      C      0.846050000000     0.900560000000     0.485130000000     0.289498   
C25      C      0.219880000000     0.825090000000     0.407350000000     0.289334   
C26      C      0.150220000000     0.841270000000     0.477790000000     0.291232   
C27      C      0.222300000000     0.824650000000     0.553050000000     0.289008   
C28      C      0.205350000000     0.895430000000     0.487690000000     0.28805    
C29      C      0.221580000000     0.214880000000     0.409100000000     0.291117   
C30      C      0.208370000000     0.144940000000     0.483300000000     0.291042   
C31      C      0.221070000000     0.216280000000     0.554730000000     0.288166   
C32      C      0.150850000000     0.199400000000     0.487540000000     0.289034   
C33      C      0.207530000000     0.920970000000     0.489540000000    -0.0748128  
C34      C      0.228480000000     0.931960000000     0.478390000000     0.0133198  
C35      C      0.230230000000     0.956160000000     0.479050000000    -0.0603174  
C36      C      0.211060000000     0.969880000000     0.490800000000     0.0268095  
C37      C      0.190170000000     0.958820000000     0.502210000000    -0.0603449  
C38      C      0.188450000000     0.934650000000     0.501660000000     0.01311    
C39      C      0.212630000000     0.995640000000     0.490590000000     0.00314813 
C40      C      0.224340000000     0.007330000000     0.458350000000    -0.0361578  
C41      C      0.225030000000     0.031570000000     0.457390000000    -0.0361183  
C42      C      0.214000000000     0.044700000000     0.488600000000     0.00303994 
C43      C      0.202550000000     0.032990000000     0.521110000000    -0.0360694  
C44      C      0.201910000000     0.008780000000     0.522130000000    -0.0362581  
C45      C      0.213870000000     0.070490000000     0.486860000000     0.0269826  
C46      C      0.210740000000     0.082120000000     0.448790000000    -0.0604467  
C47      C      0.209430000000     0.106330000000     0.447470000000     0.0136832  
C48      C      0.211140000000     0.119440000000     0.484210000000    -0.0755657  
C49      C      0.214730000000     0.107880000000     0.522150000000     0.0138981  
C50      C      0.216140000000     0.083700000000     0.523450000000    -0.0606886  
C51      C      0.925160000000     0.843720000000     0.477410000000    -0.075082   
C52      C      0.937570000000     0.848910000000     0.440850000000     0.013236   
C53      C      0.961890000000     0.847590000000     0.440130000000    -0.0605406  
C54      C      0.974290000000     0.841140000000     0.476000000000     0.0268699  
C55      C      0.961830000000     0.835720000000     0.512410000000    -0.0605746  
C56      C      0.937540000000     0.836970000000     0.513090000000     0.0134553  
C57      C      0.000150000000     0.840450000000     0.475750000000     0.0030238  
C58      C      0.012370000000     0.831010000000     0.441780000000    -0.0362739  
C59      C      0.036720000000     0.830450000000     0.441690000000    -0.0362246  
C60      C      0.049390000000     0.839380000000     0.475540000000     0.00304868 
C61      C      0.037140000000     0.848890000000     0.509410000000    -0.0362194  
C62      C      0.012820000000     0.849380000000     0.509540000000    -0.0362944  
C63      C      0.075290000000     0.838970000000     0.475550000000     0.0269719  
C64      C      0.087930000000     0.844120000000     0.439190000000    -0.0605045  
C65      C      0.112290000000     0.844530000000     0.439700000000     0.0134733  
C66      C      0.124510000000     0.839830000000     0.476610000000    -0.0753989  
C67      C      0.111900000000     0.834330000000     0.512780000000     0.0138097  
C68      C      0.087580000000     0.833870000000     0.512240000000    -0.060601   
C69      C      0.845930000000     0.124660000000     0.482710000000    -0.075641   
C70      C      0.830650000000     0.112880000000     0.509590000000     0.0135282  
C71      C      0.829890000000     0.088620000000     0.509880000000    -0.0606496  
C72      C      0.844560000000     0.075680000000     0.483610000000     0.0269993  
C73      C      0.859750000000     0.087480000000     0.456640000000    -0.0608087  
C74      C      0.860360000000     0.111710000000     0.456060000000     0.0134939  
C75      C      0.844270000000     0.049940000000     0.484650000000     0.00290754 
C76      C      0.823090000000     0.037710000000     0.484940000000    -0.0363075  
C77      C      0.822940000000     0.013440000000     0.485470000000    -0.0362383  
C78      C      0.843950000000     0.000940000000     0.486190000000     0.00290365 
C79      C      0.865110000000     0.013190000000     0.486180000000    -0.0362712  
C80      C      0.865270000000     0.037420000000     0.485240000000    -0.0362654  
C81      C      0.843900000000     0.975190000000     0.486740000000     0.0270248  
C82      C      0.829330000000     0.962600000000     0.459830000000    -0.0606279  
C83      C      0.829920000000     0.938340000000     0.459410000000     0.0136134  
C84      C      0.844920000000     0.926190000000     0.486190000000    -0.0756043  
C85      C      0.859200000000     0.938790000000     0.513570000000     0.0135382  
C86      C      0.858770000000     0.963030000000     0.513710000000    -0.0608862  
C87      C      0.925950000000     0.207990000000     0.489660000000    -0.0749966  
C88      C      0.939010000000     0.211930000000     0.453340000000     0.0133424  
C89      C      0.963330000000     0.212700000000     0.454860000000    -0.0603183  
C90      C      0.975140000000     0.209640000000     0.492790000000     0.0267999  
C91      C      0.962000000000     0.206190000000     0.529260000000    -0.0604656  
C92      C      0.937690000000     0.205320000000     0.527690000000     0.0132222  
C93      C      0.001040000000     0.209300000000     0.494070000000     0.00311754 
C94      C      0.014210000000     0.224540000000     0.469240000000    -0.0361757  
C95      C      0.038550000000     0.223490000000     0.469240000000    -0.036184   
C96      C      0.050290000000     0.207210000000     0.494110000000     0.00323183 
C97      C      0.037130000000     0.192260000000     0.519490000000    -0.0363145  
C98      C      0.012820000000     0.193260000000     0.519390000000    -0.0361054  
C99      C      0.076130000000     0.205370000000     0.492890000000     0.0267641  
C100     C      0.090160000000     0.225350000000     0.490610000000    -0.0602816  
C101     C      0.114440000000     0.223470000000     0.488960000000     0.0133495  
C102     C      0.125200000000     0.201580000000     0.489630000000    -0.0750435  
C103     C      0.111210000000     0.181630000000     0.492040000000     0.0132593  
C104     C      0.086980000000     0.183500000000     0.493550000000    -0.0603335  
C105     C      0.735700000000     0.731330000000     0.876670000000    -0.0753163  
C106     C      0.754040000000     0.720660000000     0.854870000000     0.0133355  
C107     C      0.763980000000     0.731440000000     0.820180000000    -0.0603042  
C108     C      0.755840000000     0.753160000000     0.806530000000     0.0268825  
C109     C      0.737590000000     0.763870000000     0.828540000000    -0.0603295  
C110     C      0.727620000000     0.753070000000     0.863210000000     0.0133081  
C111     C      0.766260000000     0.764490000000     0.769320000000     0.003158   
C112     C      0.790440000000     0.763680000000     0.762370000000    -0.0361886  
C113     C      0.800200000000     0.774090000000     0.727170000000    -0.0361775  
C114     C      0.786040000000     0.785610000000     0.698110000000     0.00308551 
C115     C      0.761890000000     0.786530000000     0.705140000000    -0.0361729  
C116     C      0.752110000000     0.776070000000     0.740300000000    -0.036103   
C117     C      0.796440000000     0.796550000000     0.660580000000     0.0269746  
C118     C      0.814010000000     0.785130000000     0.637990000000    -0.0605413  
C119     C      0.823940000000     0.795470000000     0.602870000000     0.0136091  
C120     C      0.816570000000     0.817510000000     0.589630000000    -0.0760136  
C121     C      0.798940000000     0.828920000000     0.612070000000     0.0135538  
C122     C      0.788950000000     0.818530000000     0.647130000000    -0.0604892  
C123     C      0.736270000000     0.731130000000     0.087690000000    -0.074697   
C124     C      0.758200000000     0.723910000000     0.102060000000     0.0130286  
C125     C      0.768420000000     0.734600000000     0.136570000000    -0.0601607  
C126     C      0.756940000000     0.752760000000     0.157470000000     0.0267468  
C127     C      0.735050000000     0.760040000000     0.142900000000    -0.06014    
C128     C      0.724830000000     0.749350000000     0.108410000000     0.0130426  
C129     C      0.767650000000     0.763930000000     0.194520000000     0.00316893 
C130     C      0.779180000000     0.750510000000     0.224660000000    -0.0361003  
C131     C      0.789070000000     0.760980000000     0.259670000000    -0.0362362  
C132     C      0.787670000000     0.785130000000     0.265390000000     0.00320154 
C133     C      0.776180000000     0.798560000000     0.235230000000    -0.0362186  
C134     C      0.766300000000     0.788090000000     0.200200000000    -0.0361726  
C135     C      0.798150000000     0.796250000000     0.302680000000     0.0267744  
C136     C      0.820050000000     0.789110000000     0.317410000000    -0.0602848  
C137     C      0.829930000000     0.799600000000     0.352420000000     0.0131106  
C138     C      0.818120000000     0.817440000000     0.373520000000    -0.07493    
C139     C      0.796210000000     0.824570000000     0.358890000000     0.0130297  
C140     C      0.786340000000     0.814100000000     0.323830000000    -0.0601934  
C141     C      0.729030000000     0.316530000000     0.873240000000    -0.0759182  
C142     C      0.726380000000     0.326770000000     0.833850000000     0.0138117  
C143     C      0.736930000000     0.316900000000     0.798790000000    -0.0606882  
C144     C      0.750420000000     0.296640000000     0.802440000000     0.0270555  
C145     C      0.753010000000     0.286410000000     0.841860000000    -0.060665   
C146     C      0.742420000000     0.296220000000     0.876850000000     0.0136502  
C147     C      0.761800000000     0.286200000000     0.765340000000     0.00300803 
C148     C      0.749810000000     0.284440000000     0.727350000000    -0.0361982  
C149     C      0.760460000000     0.274340000000     0.692640000000    -0.0362418  
C150     C      0.783380000000     0.265870000000     0.695080000000     0.00307719 
C151     C      0.795410000000     0.267760000000     0.733000000000    -0.0361269  
C152     C      0.784740000000     0.277770000000     0.767740000000    -0.0362027  
C153     C      0.794690000000     0.254980000000     0.658330000000     0.026796   
C154     C      0.782280000000     0.239450000000     0.632910000000    -0.0603272  
C155     C      0.793040000000     0.228920000000     0.598710000000     0.0130505  
C156     C      0.816430000000     0.233750000000     0.589130000000    -0.0749425  
C157     C      0.828810000000     0.249380000000     0.614360000000     0.0131833  
C158     C      0.818070000000     0.259850000000     0.648610000000    -0.0604075  
C159     C      0.817800000000     0.232870000000     0.375210000000    -0.0762487  
C160     C      0.823390000000     0.255750000000     0.363860000000     0.0136681  
C161     C      0.812800000000     0.266110000000     0.329410000000    -0.0605283  
C162     C      0.796370000000     0.253840000000     0.305580000000     0.0270554  
C163     C      0.790790000000     0.230950000000     0.317030000000    -0.0606352  
C164     C      0.801400000000     0.220590000000     0.351430000000     0.013844   
C165     C      0.785080000000     0.264830000000     0.268940000000     0.00304835 
C166     C      0.777900000000     0.288150000000     0.270360000000    -0.0360655  
C167     C      0.767130000000     0.298410000000     0.236000000000    -0.0362779  
C168     C      0.763240000000     0.285570000000     0.199450000000     0.00316902 
C169     C      0.770480000000     0.262290000000     0.197980000000    -0.0362387  
C170     C      0.781290000000     0.252050000000     0.232290000000    -0.0360624  
C171     C      0.751620000000     0.296380000000     0.163010000000     0.026929   
C172     C      0.757330000000     0.319060000000     0.150540000000    -0.0603926  
C173     C      0.746550000000     0.329110000000     0.115970000000     0.0133176  
C174     C      0.729760000000     0.316710000000     0.093220000000    -0.0753844  
C175     C      0.723940000000     0.294100000000     0.105820000000     0.0137361  
C176     C      0.734760000000     0.284040000000     0.140300000000    -0.0605128  
C177     C      0.704670000000     0.422590000000     0.986420000000    -0.0757133  
C178     C      0.726100000000     0.433330000000     0.977650000000     0.0135998  
C179     C      0.728100000000     0.457530000000     0.978540000000    -0.0606448  
C180     C      0.708720000000     0.471460000000     0.988260000000     0.027148   
C181     C      0.687320000000     0.460650000000     0.996980000000    -0.0610251  
C182     C      0.685330000000     0.436510000000     0.996100000000     0.0133532  
C183     C      0.710630000000     0.497190000000     0.988950000000     0.00262619 
C184     C      0.723350000000     0.509010000000     0.958130000000    -0.0360344  
C185     C      0.724280000000     0.533250000000     0.957870000000    -0.0362525  
C186     C      0.712530000000     0.546240000000     0.988460000000     0.00287594 
C187     C      0.700150000000     0.534390000000     0.019670000000    -0.0359455  
C188     C      0.699220000000     0.510180000000     0.019920000000    -0.0358661  
C189     C      0.712600000000     0.572030000000     0.987250000000     0.0265211  
C190     C      0.710170000000     0.583860000000     0.949230000000    -0.0603259  
C191     C      0.709160000000     0.608090000000     0.948230000000     0.0131263  
C192     C      0.710560000000     0.621030000000     0.985210000000    -0.0754651  
C193     C      0.713370000000     0.609260000000     0.023160000000     0.0133847  
C194     C      0.714390000000     0.585030000000     0.024160000000    -0.0601656  
C195     C      0.233390000000     0.813900000000     0.589810000000    -0.0759082  
C196     C      0.252460000000     0.824630000000     0.609320000000     0.0132395  
C197     C      0.262860000000     0.814500000000     0.644170000000    -0.0605934  
C198     C      0.254360000000     0.793480000000     0.660370000000     0.026945   
C199     C      0.235280000000     0.782770000000     0.640830000000    -0.0605658  
C200     C      0.224940000000     0.792850000000     0.605890000000     0.013571   
C201     C      0.265320000000     0.782750000000     0.697530000000     0.00312782 
C202     C      0.289690000000     0.782100000000     0.701580000000    -0.0362632  
C203     C      0.300000000000     0.771870000000     0.736410000000    -0.0361288  
C204     C      0.286190000000     0.762110000000     0.768060000000     0.00317362 
C205     C      0.261820000000     0.762830000000     0.764040000000    -0.0361716  
C206     C      0.251510000000     0.773010000000     0.729160000000    -0.0362766  
C207     C      0.297180000000     0.751130000000     0.805040000000     0.0268184  
C208     C      0.316860000000     0.761170000000     0.823790000000    -0.0602596  
C209     C      0.327300000000     0.750750000000     0.858320000000     0.0131989  
C210     C      0.318270000000     0.730070000000     0.874920000000    -0.075059   
C211     C      0.298540000000     0.720060000000     0.856340000000     0.0131416  
C212     C      0.288120000000     0.730460000000     0.821770000000    -0.0602662  
C213     C      0.316560000000     0.730810000000     0.085400000000    -0.0752889  
C214     C      0.321660000000     0.753910000000     0.095960000000     0.0133179  
C215     C      0.310720000000     0.764480000000     0.129930000000    -0.0603442  
C216     C      0.294530000000     0.752130000000     0.154260000000     0.026947   
C217     C      0.289410000000     0.729020000000     0.143520000000    -0.06038    
C218     C      0.300250000000     0.718520000000     0.109420000000     0.0134778  
C219     C      0.283210000000     0.763210000000     0.190920000000     0.00310476 
C220     C      0.295930000000     0.778080000000     0.217150000000    -0.0359961  
C221     C      0.285380000000     0.788310000000     0.251810000000    -0.0362867  
C222     C      0.261910000000     0.783790000000     0.261230000000     0.00311601 
C223     C      0.249170000000     0.768950000000     0.235090000000    -0.0363265  
C224     C      0.259670000000     0.758840000000     0.200260000000    -0.036062   
C225     C      0.250830000000     0.794450000000     0.298360000000     0.0269646  
C226     C      0.254550000000     0.817970000000     0.307810000000    -0.0606922  
C227     C      0.244330000000     0.827950000000     0.343010000000     0.0135806  
C228     C      0.230300000000     0.814590000000     0.369680000000    -0.0759255  
C229     C      0.226530000000     0.791080000000     0.360210000000     0.0134424  
C230     C      0.236620000000     0.781140000000     0.324820000000    -0.0605721  
C231     C      0.427700000000     0.701710000000     0.980440000000    -0.0760502  
C232     C      0.440150000000     0.704160000000     0.017800000000     0.0136817  
C233     C      0.464490000000     0.704750000000     0.017570000000    -0.0601523  
C234     C      0.476930000000     0.702940000000     0.979960000000     0.0266326  
C235     C      0.464420000000     0.700730000000     0.942560000000    -0.0604777  
C236     C      0.440090000000     0.700100000000     0.942800000000     0.0134314  
C237     C      0.502830000000     0.703040000000     0.979770000000     0.00281812 
C238     C      0.515320000000     0.718000000000     0.006140000000    -0.0358538  
C239     C      0.539670000000     0.717850000000     0.006270000000    -0.0360831  
C240     C      0.552080000000     0.702770000000     0.979960000000     0.00294689 
C241     C      0.539610000000     0.687870000000     0.953480000000    -0.036348   
C242     C      0.515280000000     0.687980000000     0.953420000000    -0.0361213  
C243     C      0.577950000000     0.702400000000     0.980350000000     0.0264883  
C244     C      0.590210000000     0.703270000000     0.018160000000    -0.0601297  
C245     C      0.614540000000     0.702460000000     0.018560000000     0.0134394  
C246     C      0.627140000000     0.700850000000     0.981150000000    -0.0754871  
C247     C      0.614910000000     0.700180000000     0.943310000000     0.0131585  
C248     C      0.590590000000     0.700910000000     0.942920000000    -0.0603847  
C249     C      0.231720000000     0.227540000000     0.591400000000    -0.0751772  
C250     C      0.253400000000     0.219970000000     0.606420000000     0.013422   
C251     C      0.263620000000     0.230700000000     0.640840000000    -0.0604295  
C252     C      0.252410000000     0.249250000000     0.661000000000     0.0268568  
C253     C      0.230690000000     0.256790000000     0.646000000000    -0.0603719  
C254     C      0.220450000000     0.246040000000     0.611580000000     0.0130593  
C255     C      0.263380000000     0.260730000000     0.697440000000     0.00310676 
C256     C      0.274590000000     0.247500000000     0.728210000000    -0.0362105  
C257     C      0.285050000000     0.258290000000     0.762350000000    -0.0362074  
C258     C      0.284550000000     0.282570000000     0.766510000000     0.00310291 
C259     C      0.273320000000     0.295800000000     0.735750000000    -0.0362465  
C260     C      0.262850000000     0.285000000000     0.701620000000    -0.0361821  
C261     C      0.295610000000     0.294030000000     0.802900000000     0.026983   
C262     C      0.317260000000     0.286330000000     0.817930000000    -0.0605336  
C263     C      0.327550000000     0.297000000000     0.852380000000     0.0132899  
C264     C      0.316410000000     0.315570000000     0.872550000000    -0.0754381  
C265     C      0.294820000000     0.323340000000     0.857450000000     0.0135731  
C266     C      0.284530000000     0.312680000000     0.823010000000    -0.0605306  
C267     C      0.315200000000     0.316010000000     0.091070000000    -0.0759932  
C268     C      0.328530000000     0.310740000000     0.126460000000     0.0137456  
C269     C      0.318320000000     0.299780000000     0.160730000000    -0.0605369  
C270     C      0.294560000000     0.293880000000     0.160380000000     0.027058   
C271     C      0.281210000000     0.299300000000     0.125050000000    -0.0605778  
C272     C      0.291420000000     0.310240000000     0.090770000000     0.0135939  
C273     C      0.283760000000     0.282000000000     0.196630000000     0.00310167 
C274     C      0.295670000000     0.264130000000     0.217440000000    -0.0361914  
C275     C      0.285530000000     0.252940000000     0.251510000000    -0.0361718  
C276     C      0.263240000000     0.259350000000     0.265590000000     0.00307475 
C277     C      0.251310000000     0.277180000000     0.244720000000    -0.0361329  
C278     C      0.261450000000     0.288370000000     0.210640000000    -0.036142   
C279     C      0.252580000000     0.247630000000     0.302130000000     0.0271039  
C280     C      0.266090000000     0.242340000000     0.337330000000    -0.0606857  
C281     C      0.256040000000     0.231580000000     0.371920000000     0.0137781  
C282     C      0.232250000000     0.225850000000     0.372100000000    -0.0765412  
C283     C      0.218740000000     0.231000000000     0.336870000000     0.0138887  
C284     C      0.228800000000     0.241780000000     0.302260000000    -0.0606283  
C285     C      0.422940000000     0.340250000000     0.976010000000    -0.0753067  
C286     C      0.433770000000     0.318810000000     0.983780000000     0.013468   
C287     C      0.458080000000     0.317050000000     0.984200000000    -0.0605604  
C288     C      0.472010000000     0.336720000000     0.977130000000     0.0269218  
C289     C      0.461130000000     0.358050000000     0.968740000000    -0.0606828  
C290     C      0.436890000000     0.359790000000     0.968110000000     0.0133574  
C291     C      0.497790000000     0.335240000000     0.979340000000     0.00278694 
C292     C      0.509860000000     0.316810000000     0.960400000000    -0.0363699  
C293     C      0.534200000000     0.315850000000     0.961920000000    -0.0362191  
C294     C      0.546910000000     0.333170000000     0.982750000000     0.00263103 
C295     C      0.534770000000     0.351420000000     0.002030000000    -0.0357754  
C296     C      0.510510000000     0.352470000000     0.000290000000    -0.0360604  
C297     C      0.572750000000     0.332620000000     0.983790000000     0.0268313  
C298     C      0.585630000000     0.327630000000     0.947630000000    -0.0606228  
C299     C      0.609960000000     0.328840000000     0.947980000000     0.0135836  
C300     C      0.621890000000     0.334950000000     0.984550000000    -0.0758741  
C301     C      0.609040000000     0.339200000000     0.021010000000     0.0141957  
C302     C      0.584750000000     0.338090000000     0.020610000000    -0.0606459  
C303     C      0.344180000000     0.621580000000     0.984920000000    -0.0750705  
C304     C      0.341090000000     0.608820000000     0.948070000000     0.0130178  
C305     C      0.339170000000     0.584650000000     0.949310000000    -0.0602064  
C306     C      0.340280000000     0.572710000000     0.987420000000     0.0265046  
C307     C      0.343180000000     0.585540000000     0.024290000000    -0.0600804  
C308     C      0.345110000000     0.609700000000     0.023050000000     0.0133083  
C309     C      0.338810000000     0.546970000000     0.988620000000     0.00286903 
C310     C      0.323110000000     0.535000000000     0.962820000000    -0.0362109  
C311     C      0.322220000000     0.510760000000     0.963170000000    -0.036354   
C312     C      0.336990000000     0.497940000000     0.989370000000     0.00283744 
C313     C      0.352480000000     0.509910000000     0.015530000000    -0.0359174  
C314     C      0.353400000000     0.534130000000     0.015130000000    -0.0358945  
C315     C      0.336740000000     0.472170000000     0.988610000000     0.0267179  
C316     C      0.335540000000     0.460170000000     0.950580000000    -0.0605202  
C317     C      0.336420000000     0.435950000000     0.949610000000     0.0138001  
C318     C      0.338470000000     0.423190000000     0.986670000000    -0.0756735  
C319     C      0.339200000000     0.435130000000     0.024780000000     0.0137386  
C320     C      0.338390000000     0.459370000000     0.025740000000    -0.0603848  
Cd1      Cd     0.347400000000     0.348080000000     0.982000000000     0.505564   
Cd2      Cd     0.351750000000     0.696890000000     0.981310000000     0.505757   
Cd3      Cd     0.696890000000     0.347180000000     0.983690000000     0.505581   
Cd4      Cd     0.703090000000     0.696460000000     0.982440000000     0.505681   
Cd5      Cd     0.850480000000     0.200350000000     0.483230000000     0.505957   
Cd6      Cd     0.849570000000     0.850580000000     0.482150000000     0.505831   
Cd7      Cd     0.200150000000     0.845760000000     0.481520000000     0.50532    
Cd8      Cd     0.200810000000     0.194370000000     0.482540000000     0.505589   
H1       H      0.243520000000     0.921870000000     0.469020000000     0.0453912  
H2       H      0.246660000000     0.964110000000     0.470600000000     0.0485234  
H3       H      0.174950000000     0.968850000000     0.510800000000     0.0483471  
H4       H      0.172030000000     0.926720000000     0.510240000000     0.0446192  
H5       H      0.232600000000     0.997760000000     0.433350000000     0.041414   
H6       H      0.234230000000     0.040030000000     0.432150000000     0.0412243  
H7       H      0.193630000000     0.042530000000     0.545420000000     0.0412803  
H8       H      0.192990000000     0.000340000000     0.547700000000     0.0412052  
H9       H      0.208640000000     0.072490000000     0.420080000000     0.0485816  
H10      H      0.206600000000     0.114740000000     0.417760000000     0.0446697  
H11      H      0.216270000000     0.117510000000     0.550980000000     0.0449671  
H12      H      0.218970000000     0.075340000000     0.553190000000     0.0484968  
H13      H      0.928530000000     0.854190000000     0.412850000000     0.0446883  
H14      H      0.971000000000     0.852090000000     0.411720000000     0.0484875  
H15      H      0.970860000000     0.830380000000     0.540390000000     0.0485963  
H16      H      0.928480000000     0.832780000000     0.541710000000     0.0452495  
H17      H      0.003090000000     0.823740000000     0.415500000000     0.0414525  
H18      H      0.045610000000     0.822730000000     0.415360000000     0.0412818  
H19      H      0.046340000000     0.856320000000     0.535620000000     0.0413634  
H20      H      0.003940000000     0.857150000000     0.535850000000     0.0414213  
H21      H      0.079020000000     0.848380000000     0.410510000000     0.0483715  
H22      H      0.121510000000     0.848880000000     0.411340000000     0.0444204  
H23      H      0.120810000000     0.830500000000     0.541660000000     0.0452175  
H24      H      0.078410000000     0.829440000000     0.540620000000     0.048497   
H25      H      0.819310000000     0.122390000000     0.530480000000     0.0449585  
H26      H      0.818130000000     0.079980000000     0.531230000000     0.0489594  
H27      H      0.871080000000     0.077960000000     0.435720000000     0.0488063  
H28      H      0.872310000000     0.120280000000     0.434960000000     0.0446018  
H29      H      0.806650000000     0.046910000000     0.484220000000     0.0417496  
H30      H      0.806370000000     0.004450000000     0.485740000000     0.041692   
H31      H      0.881580000000     0.004020000000     0.486350000000     0.0415482  
H32      H      0.881860000000     0.046380000000     0.485400000000     0.0415032  
H33      H      0.817830000000     0.971530000000     0.438460000000     0.0489518  
H34      H      0.818690000000     0.929110000000     0.437970000000     0.045035   
H35      H      0.870940000000     0.929940000000     0.534620000000     0.0445179  
H36      H      0.870010000000     0.972260000000     0.535110000000     0.0487908  
H37      H      0.930470000000     0.213990000000     0.423530000000     0.045201   
H38      H      0.972870000000     0.215080000000     0.426090000000     0.0486027  
H39      H      0.970500000000     0.204160000000     0.559100000000     0.0483637  
H40      H      0.928110000000     0.202400000000     0.556280000000     0.0448472  
H41      H      0.005720000000     0.237300000000     0.449740000000     0.041317   
H42      H      0.048120000000     0.235130000000     0.449050000000     0.04139    
H43      H      0.045600000000     0.179720000000     0.539470000000     0.0412053  
H44      H      0.003270000000     0.181080000000     0.538570000000     0.0411412  
H45      H      0.082400000000     0.242480000000     0.490540000000     0.0484745  
H46      H      0.124770000000     0.239170000000     0.487250000000     0.0450468  
H47      H      0.118960000000     0.164490000000     0.492410000000     0.0447347  
H48      H      0.076730000000     0.167730000000     0.494560000000     0.0483458  
H49      H      0.760600000000     0.703860000000     0.864380000000     0.0452235  
H50      H      0.777790000000     0.722550000000     0.803630000000     0.0485487  
H51      H      0.731120000000     0.780740000000     0.819230000000     0.0484778  
H52      H      0.713560000000     0.761780000000     0.879430000000     0.0449195  
H53      H      0.801890000000     0.755250000000     0.784430000000     0.0413809  
H54      H      0.818910000000     0.773400000000     0.723000000000     0.0416143  
H55      H      0.750470000000     0.795000000000     0.683050000000     0.0415171  
H56      H      0.733390000000     0.776710000000     0.744340000000     0.0415286  
H57      H      0.819950000000     0.768050000000     0.647230000000     0.0486588  
H58      H      0.837460000000     0.786200000000     0.586190000000     0.0451186  
H59      H      0.792910000000     0.845940000000     0.602690000000     0.0446677  
H60      H      0.775610000000     0.827890000000     0.664110000000     0.0486618  
H61      H      0.767490000000     0.709960000000     0.086700000000     0.0450909  
H62      H      0.785440000000     0.728780000000     0.146650000000     0.0484907  
H63      H      0.725600000000     0.773770000000     0.158580000000     0.0485294  
H64      H      0.707880000000     0.755270000000     0.098180000000     0.0453986  
H65      H      0.780210000000     0.731820000000     0.221590000000     0.0415584  
H66      H      0.797500000000     0.750100000000     0.282620000000     0.0415217  
H67      H      0.775100000000     0.817240000000     0.238370000000     0.0415867  
H68      H      0.757860000000     0.798980000000     0.177270000000     0.0414254  
H69      H      0.829730000000     0.775610000000     0.301540000000     0.0485438  
H70      H      0.846870000000     0.793760000000     0.362850000000     0.0450988  
H71      H      0.786640000000     0.838240000000     0.374520000000     0.0452534  
H72      H      0.769310000000     0.819810000000     0.313600000000     0.0485453  
H73      H      0.716200000000     0.342450000000     0.830070000000     0.0447835  
H74      H      0.734800000000     0.325330000000     0.768920000000     0.0487496  
H75      H      0.763040000000     0.270630000000     0.845630000000     0.0487241  
H76      H      0.744740000000     0.287880000000     0.906760000000     0.0447445  
H77      H      0.732060000000     0.290590000000     0.724590000000     0.0414896  
H78      H      0.750810000000     0.273340000000     0.663760000000     0.0414235  
H79      H      0.813010000000     0.261200000000     0.736030000000     0.0415602  
H80      H      0.794530000000     0.279080000000     0.796430000000     0.0415449  
H81      H      0.764330000000     0.235130000000     0.639840000000     0.0486977  
H82      H      0.783050000000     0.216930000000     0.579900000000     0.0451255  
H83      H      0.846840000000     0.253510000000     0.607730000000     0.0451822  
H84      H      0.828020000000     0.271950000000     0.667280000000     0.0486915  
H85      H      0.836010000000     0.265650000000     0.381500000000     0.044867   
H86      H      0.817720000000     0.283660000000     0.321140000000     0.0485643  
H87      H      0.777980000000     0.221120000000     0.299710000000     0.0486291  
H88      H      0.796650000000     0.202960000000     0.359470000000     0.0448275  
H89      H      0.780240000000     0.298400000000     0.298310000000     0.0413371  
H90      H      0.761470000000     0.316290000000     0.238320000000     0.0415027  
H91      H      0.768080000000     0.252040000000     0.170050000000     0.0416203  
H92      H      0.786950000000     0.234170000000     0.229890000000     0.0415142  
H93      H      0.770420000000     0.328940000000     0.167110000000     0.0485929  
H94      H      0.751440000000     0.346550000000     0.107000000000     0.0447614  
H95      H      0.711030000000     0.284110000000     0.089010000000     0.0452649  
H96      H      0.729750000000     0.266650000000     0.149430000000     0.0486905  
H97      H      0.741340000000     0.423060000000     0.970180000000     0.04471    
H98      H      0.744890000000     0.465310000000     0.972080000000     0.0486315  
H99      H      0.671960000000     0.470860000000     0.003910000000     0.0487864  
H100     H      0.668550000000     0.428780000000     0.002840000000     0.0450044  
H101     H      0.732190000000     0.499540000000     0.933640000000     0.0413687  
H102     H      0.734190000000     0.541830000000     0.933650000000     0.0413852  
H103     H      0.690710000000     0.543840000000     0.043460000000     0.041339   
H104     H      0.689510000000     0.501620000000     0.044420000000     0.041306   
H105     H      0.708440000000     0.574390000000     0.920280000000     0.0485728  
H106     H      0.706950000000     0.616640000000     0.918490000000     0.0451211  
H107     H      0.714600000000     0.618750000000     0.052180000000     0.0449422  
H108     H      0.716600000000     0.576480000000     0.053900000000     0.0485279  
H109     H      0.259350000000     0.840880000000     0.597710000000     0.0445414  
H110     H      0.277360000000     0.823300000000     0.658800000000     0.0486186  
H111     H      0.228500000000     0.766430000000     0.652240000000     0.0487288  
H112     H      0.210300000000     0.784140000000     0.591510000000     0.0453151  
H113     H      0.300810000000     0.789150000000     0.677460000000     0.0415772  
H114     H      0.318820000000     0.771280000000     0.738180000000     0.041526   
H115     H      0.250660000000     0.755820000000     0.788150000000     0.0413194  
H116     H      0.232690000000     0.773540000000     0.727260000000     0.0415677  
H117     H      0.324090000000     0.777260000000     0.812070000000     0.0484375  
H118     H      0.342450000000     0.758940000000     0.872020000000     0.045098   
H119     H      0.291210000000     0.704080000000     0.868320000000     0.0451619  
H120     H      0.273170000000     0.722090000000     0.807770000000     0.048476   
H121     H      0.334070000000     0.763880000000     0.077910000000     0.04485    
H122     H      0.314820000000     0.782400000000     0.136880000000     0.0484351  
H123     H      0.277320000000     0.718880000000     0.161900000000     0.0485046  
H124     H      0.296030000000     0.700650000000     0.102180000000     0.0452139  
H125     H      0.314190000000     0.781520000000     0.211360000000     0.0414441  
H126     H      0.295740000000     0.799420000000     0.271720000000     0.0417221  
H127     H      0.230960000000     0.765400000000     0.241260000000     0.0416153  
H128     H      0.249240000000     0.747790000000     0.180380000000     0.0412412  
H129     H      0.265210000000     0.828720000000     0.287750000000     0.0487748  
H130     H      0.247550000000     0.846130000000     0.349440000000     0.0451727  
H131     H      0.215810000000     0.780340000000     0.380170000000     0.0447204  
H132     H      0.233620000000     0.762910000000     0.318550000000     0.048766   
H133     H      0.431110000000     0.705370000000     0.047320000000     0.044918   
H134     H      0.473570000000     0.706170000000     0.046980000000     0.0484648  
H135     H      0.473430000000     0.699650000000     0.912990000000     0.0484698  
H136     H      0.431000000000     0.698300000000     0.913460000000     0.0449125  
H137     H      0.506290000000     0.730060000000     0.026370000000     0.0414167  
H138     H      0.548780000000     0.729760000000     0.026620000000     0.0416008  
H139     H      0.548650000000     0.675790000000     0.933310000000     0.0414507  
H140     H      0.506220000000     0.675950000000     0.933230000000     0.0412944  
H141     H      0.580980000000     0.704160000000     0.047540000000     0.0485527  
H142     H      0.623460000000     0.702970000000     0.048230000000     0.0451061  
H143     H      0.624130000000     0.699000000000     0.913950000000     0.0449735  
H144     H      0.581660000000     0.700500000000     0.913250000000     0.0485476  
H145     H      0.262560000000     0.205800000000     0.591470000000     0.0454225  
H146     H      0.280500000000     0.224670000000     0.651280000000     0.048554   
H147     H      0.221480000000     0.270860000000     0.661160000000     0.0484819  
H148     H      0.203700000000     0.252230000000     0.600800000000     0.0447665  
H149     H      0.275000000000     0.228740000000     0.726240000000     0.0414381  
H150     H      0.293220000000     0.247570000000     0.785840000000     0.0414559  
H151     H      0.272920000000     0.314550000000     0.737710000000     0.0414807  
H152     H      0.254670000000     0.295710000000     0.678120000000     0.0414917  
H153     H      0.326390000000     0.272200000000     0.802810000000     0.0484971  
H154     H      0.344240000000     0.290660000000     0.863210000000     0.0445962  
H155     H      0.285760000000     0.337580000000     0.872390000000     0.0453605  
H156     H      0.267710000000     0.318840000000     0.812540000000     0.0485863  
H157     H      0.346880000000     0.315020000000     0.127680000000     0.0449713  
H158     H      0.329020000000     0.296120000000     0.187680000000     0.0486271  
H159     H      0.262930000000     0.294750000000     0.123580000000     0.0486285  
H160     H      0.280690000000     0.314020000000     0.063910000000     0.044782   
H161     H      0.312710000000     0.258540000000     0.207010000000     0.0415758  
H162     H      0.295040000000     0.239040000000     0.266480000000     0.0415042  
H163     H      0.234270000000     0.282780000000     0.255170000000     0.0415299  
H164     H      0.251950000000     0.302290000000     0.195670000000     0.041497   
H165     H      0.284380000000     0.246880000000     0.338460000000     0.0486261  
H166     H      0.266900000000     0.227910000000     0.398650000000     0.0447477  
H167     H      0.200380000000     0.226740000000     0.336030000000     0.0446878  
H168     H      0.217970000000     0.245350000000     0.275440000000     0.0486355  
H169     H      0.423480000000     0.303440000000     0.989970000000     0.0449376  
H170     H      0.465970000000     0.300410000000     0.991030000000     0.0487411  
H171     H      0.471400000000     0.373450000000     0.962570000000     0.0486237  
H172     H      0.429090000000     0.376540000000     0.961860000000     0.0447507  
H173     H      0.500520000000     0.303360000000     0.943830000000     0.041488   
H174     H      0.543070000000     0.301490000000     0.946990000000     0.0413571  
H175     H      0.544070000000     0.365170000000     0.017920000000     0.0416282  
H176     H      0.501700000000     0.366740000000     0.015580000000     0.0417117  
H177     H      0.576880000000     0.323530000000     0.918710000000     0.0487873  
H178     H      0.619390000000     0.325450000000     0.919390000000     0.0444752  
H179     H      0.617710000000     0.343860000000     0.049740000000     0.0451954  
H180     H      0.575320000000     0.341690000000     0.049110000000     0.0488183  
H181     H      0.340340000000     0.617470000000     0.918190000000     0.045163   
H182     H      0.337260000000     0.575290000000     0.920280000000     0.0484366  
H183     H      0.343780000000     0.576920000000     0.054210000000     0.0484229  
H184     H      0.347380000000     0.619050000000     0.052010000000     0.0451544  
H185     H      0.311370000000     0.544360000000     0.942520000000     0.0414031  
H186     H      0.309870000000     0.502060000000     0.943080000000     0.0414232  
H187     H      0.364350000000     0.500540000000     0.035600000000     0.0414949  
H188     H      0.365950000000     0.542780000000     0.034930000000     0.0413231  
H189     H      0.334530000000     0.469520000000     0.921400000000     0.0486147  
H190     H      0.335840000000     0.427260000000     0.919730000000     0.0452444  
H191     H      0.340720000000     0.425780000000     0.053880000000     0.0445046  
H192     H      0.339050000000     0.468100000000     0.055570000000     0.0485522  
O1       O      0.384130000000     0.325740000000     0.986960000000    -0.232801   
O2       O      0.341590000000     0.386680000000     0.951260000000    -0.234572   
O3       O      0.347460000000     0.332400000000     0.053590000000    -0.236789   
O4       O      0.346370000000     0.319930000000     0.924070000000    -0.238902   
O5       O      0.317350000000     0.343350000000     0.928130000000    -0.234554   
O6       O      0.314560000000     0.331780000000     0.021990000000    -0.239942   
O7       O      0.387320000000     0.361560000000     0.969240000000    -0.239744   
O8       O      0.342520000000     0.385580000000     0.018130000000    -0.238728   
O9       O      0.322750000000     0.699390000000     0.037660000000    -0.236652   
O10      O      0.347800000000     0.727040000000     0.927430000000    -0.237013   
O11      O      0.350120000000     0.658920000000     0.016200000000    -0.235598   
O12      O      0.390300000000     0.702310000000     0.013970000000    -0.237278   
O13      O      0.390420000000     0.697130000000     0.947800000000    -0.238507   
O14      O      0.345450000000     0.658350000000     0.949840000000    -0.234841   
O15      O      0.344750000000     0.729250000000     0.030160000000    -0.236712   
O16      O      0.321390000000     0.700620000000     0.927480000000    -0.236122   
O17      O      0.706540000000     0.345680000000     0.908660000000    -0.236342   
O18      O      0.723900000000     0.347220000000     0.043410000000    -0.238109   
O19      O      0.659440000000     0.336040000000     0.951440000000    -0.238335   
O20      O      0.683240000000     0.387160000000     0.993750000000    -0.239708   
O21      O      0.719190000000     0.383820000000     0.976220000000    -0.235354   
O22      O      0.658450000000     0.343750000000     0.016850000000    -0.23529    
O23      O      0.719630000000     0.317670000000     0.945960000000    -0.239718   
O24      O      0.703110000000     0.316500000000     0.035780000000    -0.235463   
O25      O      0.732060000000     0.700310000000     0.926110000000    -0.236627   
O26      O      0.705430000000     0.725650000000     0.038280000000    -0.23536    
O27      O      0.705890000000     0.657630000000     0.950580000000    -0.236488   
O28      O      0.664690000000     0.698810000000     0.948370000000    -0.237082   
O29      O      0.664290000000     0.699040000000     0.015210000000    -0.235711   
O30      O      0.708830000000     0.658680000000     0.017170000000    -0.23681    
O31      O      0.707720000000     0.728420000000     0.932030000000    -0.237886   
O32      O      0.734880000000     0.702830000000     0.032820000000    -0.236672   
O33      O      0.817470000000     0.207760000000     0.530700000000    -0.235978   
O34      O      0.843300000000     0.232670000000     0.434380000000    -0.238316   
O35      O      0.836530000000     0.162450000000     0.509580000000    -0.235478   
O36      O      0.888320000000     0.200180000000     0.519130000000    -0.236251   
O37      O      0.889160000000     0.209450000000     0.454300000000    -0.235305   
O38      O      0.859030000000     0.161300000000     0.456170000000    -0.238906   
O39      O      0.848750000000     0.226950000000     0.543250000000    -0.23592    
O40      O      0.824600000000     0.201170000000     0.422050000000    -0.239656   
O41      O      0.887940000000     0.840850000000     0.511070000000    -0.234872   
O42      O      0.835620000000     0.888790000000     0.457620000000    -0.234596   
O43      O      0.842950000000     0.818510000000     0.531650000000    -0.237496   
O44      O      0.848520000000     0.822780000000     0.423810000000    -0.237083   
O45      O      0.818390000000     0.844560000000     0.430330000000    -0.235466   
O46      O      0.822000000000     0.848860000000     0.541330000000    -0.23984    
O47      O      0.887880000000     0.852720000000     0.447600000000    -0.237024   
O48      O      0.857870000000     0.889200000000     0.511300000000    -0.239125   
O49      O      0.162180000000     0.845620000000     0.445590000000    -0.23885    
O50      O      0.221680000000     0.882640000000     0.474430000000    -0.230526   
O51      O      0.221630000000     0.846520000000     0.415020000000    -0.236075   
O52      O      0.205620000000     0.815020000000     0.534110000000    -0.235621   
O53      O      0.228830000000     0.844040000000     0.538870000000    -0.240293   
O54      O      0.208890000000     0.813150000000     0.433890000000    -0.239327   
O55      O      0.161410000000     0.838790000000     0.511410000000    -0.234661   
O56      O      0.186820000000     0.885180000000     0.498500000000    -0.238858   
O57      O      0.206190000000     0.156050000000     0.449530000000    -0.238328   
O58      O      0.164030000000     0.216820000000     0.482810000000    -0.232445   
O59      O      0.200200000000     0.209730000000     0.410580000000    -0.238597   
O60      O      0.231060000000     0.199830000000     0.535740000000    -0.234018   
O61      O      0.201550000000     0.222600000000     0.540430000000    -0.23717    
O62      O      0.233310000000     0.210380000000     0.441350000000    -0.240561   
O63      O      0.207300000000     0.156770000000     0.516430000000    -0.23515    
O64      O      0.160810000000     0.179890000000     0.490090000000    -0.239656   


