data_structure

_audit_creation_method RASPA-1.0
_audit_creation_date 2023-5-22
_audit_author_name 'Poobodin Mano'

_cell_length_a    50.0708
_cell_length_b    50.0754
_cell_length_c    25.0074
_cell_angle_alpha 90.0017
_cell_angle_beta  90.0018
_cell_angle_gamma 120.002
_cell_volume      54299.9

_symmetry_cell_setting          triclinic
_symmetry_space_group_name_Hall 'P 1'
_symmetry_space_group_name_H-M  'P 1'
_symmetry_Int_Tables_number     1

_symmetry_equiv_pos_as_xyz 'x,y,z'

loop_
_atom_site_label
_atom_site_type_symbol
_atom_site_fract_x
_atom_site_fract_y
_atom_site_fract_z
_atom_site_charge
C1       C      0.372790000000     0.224300000000     0.236320000000     0.339523   
C2       C      0.322680000000     0.223910000000     0.403330000000     0.338221   
C3       C      0.425660000000     0.293940000000     0.360020000000     0.341901   
C4       C      0.336480000000     0.293230000000     0.268020000000     0.34018    
C5       C      0.213640000000     0.378870000000     0.193130000000     0.343768   
C6       C      0.220590000000     0.347220000000     0.030290000000     0.339354   
C7       C      0.298190000000     0.447660000000     0.077900000000     0.340092   
C8       C      0.296780000000     0.361060000000     0.160280000000     0.339329   
C9       C      0.331030000000     0.123910000000     0.898190000000     0.339836   
C10      C      0.370420000000     0.160820000000     0.058810000000     0.339958   
C11      C      0.363820000000     0.064520000000     0.005420000000     0.340209   
C12      C      0.436360000000     0.150990000000     0.926800000000     0.340034   
C13      C      0.149740000000     0.287270000000     0.859920000000     0.339377   
C14      C      0.105690000000     0.273750000000     0.700370000000     0.340029   
C15      C      0.128820000000     0.196300000000     0.760050000000     0.339147   
C16      C      0.049100000000     0.196210000000     0.837410000000     0.340226   
C17      C      0.245190000000     0.154260000000     0.562300000000     0.34048    
C18      C      0.260310000000     0.111710000000     0.726110000000     0.340817   
C19      C      0.172500000000     0.123330000000     0.698490000000     0.343727   
C20      C      0.189100000000     0.048930000000     0.605570000000     0.342087   
C21      C      0.114090000000     0.353710000000     0.546570000000     0.338686   
C22      C      0.147160000000     0.382310000000     0.362850000000     0.33774    
C23      C      0.048110000000     0.350900000000     0.404340000000     0.340847   
C24      C      0.134720000000     0.445020000000     0.487880000000     0.340715   
C25      C      0.194470000000     0.009270000000     0.555370000000    -0.0140228  
C26      C      0.142650000000     0.997890000000     0.590050000000    -0.0136573  
C27      C      0.180210000000     0.496960000000     0.500470000000    -0.0139338  
C28      C      0.128380000000     0.985040000000     0.535180000000    -0.0141275  
C29      C      0.127520000000     0.131020000000     0.690630000000    -0.0129128  
C30      C      0.154600000000     0.139710000000     0.777770000000    -0.0129307  
C31      C      0.133590000000     0.164110000000     0.690340000000    -0.014816   
C32      C      0.161000000000     0.172940000000     0.779770000000    -0.0149889  
C33      C      0.140870000000     0.332080000000     0.598740000000    -0.0137468  
C34      C      0.095060000000     0.332890000000     0.637350000000    -0.0139434  
C35      C      0.126350000000     0.297900000000     0.612460000000    -0.014306   
C36      C      0.080650000000     0.298800000000     0.652600000000    -0.0142933  
C37      C      0.993230000000     0.159300000000     0.827210000000    -0.0135189  
C38      C      0.017320000000     0.171420000000     0.917950000000    -0.0133065  
C39      C      0.968930000000     0.167220000000     0.845780000000    -0.0144578  
C40      C      0.493050000000     0.179130000000     0.937940000000    -0.0146217  
C41      C      0.272540000000     0.085940000000     0.798900000000    -0.013919   
C42      C      0.311960000000     0.139170000000     0.768400000000    -0.0140127  
C43      C      0.278990000000     0.096710000000     0.857170000000    -0.0138897  
C44      C      0.318230000000     0.149910000000     0.826660000000    -0.0138532  
C45      C      0.179570000000     0.408650000000     0.284130000000    -0.0145517  
C46      C      0.177850000000     0.361220000000     0.322580000000    -0.0147373  
C47      C      0.178640000000     0.396420000000     0.227770000000    -0.0133341  
C48      C      0.177070000000     0.349380000000     0.265890000000    -0.0132969  
C49      C      0.314500000000     0.484210000000     0.002410000000    -0.0142698  
C50      C      0.330090000000     0.003260000000     0.097690000000    -0.0150761  
C51      C      0.345970000000     0.009870000000     0.983250000000    -0.0136056  
C52      C      0.361190000000     0.028740000000     0.076590000000    -0.0131183  
C53      C      0.202980000000     0.321980000000     0.892330000000    -0.0135886  
C54      C      0.158310000000     0.323000000000     0.934940000000    -0.013464   
C55      C      0.213930000000     0.317670000000     0.947130000000    -0.0143369  
C56      C      0.168590000000     0.318310000000     0.990020000000    -0.0143976  
C57      C      0.250860000000     0.165070000000     0.465050000000    -0.0132855  
C58      C      0.280240000000     0.207610000000     0.530410000000    -0.0135478  
C59      C      0.280490000000     0.173630000000     0.434490000000    -0.0147123  
C60      C      0.310250000000     0.217250000000     0.499870000000    -0.0147385  
C61      C      0.474170000000     0.343390000000     0.375090000000    -0.0139578  
C62      C      0.468090000000     0.293630000000     0.410320000000    -0.0139713  
C63      C      0.006180000000     0.352150000000     0.353490000000    -0.0140215  
C64      C      0.999610000000     0.301980000000     0.387400000000    -0.0142918  
C65      C      0.305900000000     0.297100000000     0.193900000000    -0.0141262  
C66      C      0.323320000000     0.334840000000     0.270560000000    -0.0144153  
C67      C      0.315410000000     0.323710000000     0.154580000000    -0.0138837  
C68      C      0.331850000000     0.361180000000     0.230660000000    -0.0140101  
C69      C      0.387980000000     0.211600000000     0.101440000000    -0.0141746  
C70      C      0.343500000000     0.163410000000     0.139990000000    -0.0140277  
C71      C      0.401490000000     0.221660000000     0.157610000000    -0.0138069  
C72      C      0.357350000000     0.173430000000     0.195910000000    -0.0139284  
C73      C      0.372790000000     0.724300000000     0.236320000000     0.339524   
C74      C      0.322680000000     0.723910000000     0.403330000000     0.338219   
C75      C      0.425660000000     0.793940000000     0.360020000000     0.3419     
C76      C      0.336480000000     0.793230000000     0.268030000000     0.340354   
C77      C      0.213640000000     0.878870000000     0.193130000000     0.343772   
C78      C      0.220590000000     0.847220000000     0.030290000000     0.339397   
C79      C      0.298190000000     0.947660000000     0.077900000000     0.340094   
C80      C      0.296780000000     0.861060000000     0.160280000000     0.339332   
C81      C      0.331030000000     0.623910000000     0.898190000000     0.33983    
C82      C      0.370420000000     0.660820000000     0.058810000000     0.339992   
C83      C      0.363820000000     0.564520000000     0.005420000000     0.340232   
C84      C      0.436360000000     0.650990000000     0.926800000000     0.340032   
C85      C      0.149740000000     0.787270000000     0.859920000000     0.339379   
C86      C      0.105680000000     0.773750000000     0.700370000000     0.34016    
C87      C      0.128820000000     0.696300000000     0.760050000000     0.339146   
C88      C      0.049100000000     0.696200000000     0.837410000000     0.340196   
C89      C      0.245190000000     0.654260000000     0.562300000000     0.340482   
C90      C      0.260310000000     0.611710000000     0.726110000000     0.340819   
C91      C      0.172500000000     0.623330000000     0.698490000000     0.343729   
C92      C      0.189100000000     0.548930000000     0.605570000000     0.342093   
C93      C      0.114090000000     0.853710000000     0.546570000000     0.338684   
C94      C      0.147160000000     0.882310000000     0.362850000000     0.33778    
C95      C      0.048110000000     0.850900000000     0.404340000000     0.340851   
C96      C      0.134720000000     0.945020000000     0.487880000000     0.340733   
C97      C      0.194470000000     0.509270000000     0.555370000000    -0.0137048  
C98      C      0.142650000000     0.497890000000     0.590050000000    -0.013811   
C99      C      0.180210000000     0.996960000000     0.500470000000    -0.0135902  
C100     C      0.128380000000     0.485040000000     0.535180000000    -0.01425    
C101     C      0.127520000000     0.631020000000     0.690630000000    -0.0129085  
C102     C      0.154600000000     0.639700000000     0.777770000000    -0.0129507  
C103     C      0.133590000000     0.664110000000     0.690340000000    -0.0148331  
C104     C      0.161000000000     0.672940000000     0.779770000000    -0.0149783  
C105     C      0.140870000000     0.832080000000     0.598740000000    -0.0137847  
C106     C      0.095060000000     0.832890000000     0.637350000000    -0.0139604  
C107     C      0.126350000000     0.797900000000     0.612460000000    -0.0142727  
C108     C      0.080650000000     0.798800000000     0.652600000000    -0.0142562  
C109     C      0.993230000000     0.659300000000     0.827210000000    -0.0135172  
C110     C      0.017320000000     0.671420000000     0.917950000000    -0.0132956  
C111     C      0.968930000000     0.667220000000     0.845780000000    -0.0144575  
C112     C      0.493050000000     0.679130000000     0.937940000000    -0.0146289  
C113     C      0.272540000000     0.585940000000     0.798900000000    -0.0138756  
C114     C      0.311960000000     0.639170000000     0.768400000000    -0.0140021  
C115     C      0.278990000000     0.596710000000     0.857170000000    -0.0139481  
C116     C      0.318230000000     0.649910000000     0.826660000000    -0.0138839  
C117     C      0.179570000000     0.908660000000     0.284130000000    -0.014734   
C118     C      0.177850000000     0.861220000000     0.322580000000    -0.0147139  
C119     C      0.178640000000     0.896420000000     0.227770000000    -0.01324    
C120     C      0.177070000000     0.849380000000     0.265890000000    -0.0132981  
C121     C      0.314500000000     0.984210000000     0.002410000000    -0.0141391  
C122     C      0.330090000000     0.503260000000     0.097690000000    -0.014829   
C123     C      0.345960000000     0.509870000000     0.983250000000    -0.0134492  
C124     C      0.361190000000     0.528740000000     0.076590000000    -0.0132131  
C125     C      0.202980000000     0.821970000000     0.892330000000    -0.0135566  
C126     C      0.158310000000     0.823000000000     0.934940000000    -0.0134538  
C127     C      0.213930000000     0.817670000000     0.947130000000    -0.0143278  
C128     C      0.168590000000     0.818310000000     0.990020000000    -0.0144235  
C129     C      0.250860000000     0.665070000000     0.465050000000    -0.0132642  
C130     C      0.280240000000     0.707610000000     0.530410000000    -0.0135201  
C131     C      0.280490000000     0.673630000000     0.434490000000    -0.014782   
C132     C      0.310250000000     0.717250000000     0.499870000000    -0.0147496  
C133     C      0.474170000000     0.843390000000     0.375090000000    -0.0139548  
C134     C      0.468080000000     0.793630000000     0.410320000000    -0.0139155  
C135     C      0.006180000000     0.852150000000     0.353490000000    -0.01402    
C136     C      0.999610000000     0.801980000000     0.387400000000    -0.014287   
C137     C      0.305890000000     0.797100000000     0.193900000000    -0.0141695  
C138     C      0.323320000000     0.834840000000     0.270560000000    -0.0144232  
C139     C      0.315410000000     0.823710000000     0.154580000000    -0.0138514  
C140     C      0.331850000000     0.861180000000     0.230650000000    -0.0139674  
C141     C      0.387980000000     0.711600000000     0.101440000000    -0.014225   
C142     C      0.343500000000     0.663410000000     0.140000000000    -0.014049   
C143     C      0.401490000000     0.721660000000     0.157610000000    -0.0137888  
C144     C      0.357350000000     0.673430000000     0.195910000000    -0.0139175  
C145     C      0.872790000000     0.224300000000     0.236320000000     0.339522   
C146     C      0.822680000000     0.223910000000     0.403330000000     0.33822    
C147     C      0.925660000000     0.293940000000     0.360020000000     0.341895   
C148     C      0.836480000000     0.293230000000     0.268020000000     0.340178   
C149     C      0.713640000000     0.378870000000     0.193130000000     0.343768   
C150     C      0.720590000000     0.347220000000     0.030290000000     0.339354   
C151     C      0.798190000000     0.447660000000     0.077900000000     0.34009    
C152     C      0.796780000000     0.361060000000     0.160280000000     0.339328   
C153     C      0.831030000000     0.123910000000     0.898190000000     0.339833   
C154     C      0.870420000000     0.160820000000     0.058810000000     0.339993   
C155     C      0.863820000000     0.064520000000     0.005420000000     0.340203   
C156     C      0.936360000000     0.150990000000     0.926800000000     0.340014   
C157     C      0.649740000000     0.287270000000     0.859920000000     0.33938    
C158     C      0.605680000000     0.273750000000     0.700370000000     0.340029   
C159     C      0.628820000000     0.196300000000     0.760050000000     0.339146   
C160     C      0.549100000000     0.196210000000     0.837410000000     0.340056   
C161     C      0.745190000000     0.154260000000     0.562300000000     0.340479   
C162     C      0.760310000000     0.111710000000     0.726110000000     0.340818   
C163     C      0.672500000000     0.123330000000     0.698490000000     0.343726   
C164     C      0.689100000000     0.048930000000     0.605570000000     0.342087   
C165     C      0.614090000000     0.353710000000     0.546570000000     0.338686   
C166     C      0.647160000000     0.382310000000     0.362850000000     0.33773    
C167     C      0.548110000000     0.350900000000     0.404340000000     0.340843   
C168     C      0.634720000000     0.445020000000     0.487880000000     0.340715   
C169     C      0.694470000000     0.009270000000     0.555370000000    -0.0140161  
C170     C      0.642650000000     0.997890000000     0.590050000000    -0.0136614  
C171     C      0.680210000000     0.496960000000     0.500470000000    -0.0139333  
C172     C      0.628380000000     0.985040000000     0.535180000000    -0.0141281  
C173     C      0.627520000000     0.131020000000     0.690630000000    -0.0129105  
C174     C      0.654600000000     0.139710000000     0.777770000000    -0.0129289  
C175     C      0.633590000000     0.164110000000     0.690340000000    -0.0148176  
C176     C      0.661000000000     0.172940000000     0.779770000000    -0.0149904  
C177     C      0.640870000000     0.332080000000     0.598740000000    -0.0137417  
C178     C      0.595060000000     0.332890000000     0.637350000000    -0.013918   
C179     C      0.626350000000     0.297900000000     0.612460000000    -0.0142377  
C180     C      0.580650000000     0.298800000000     0.652600000000    -0.0143629  
C181     C      0.493230000000     0.159300000000     0.827210000000    -0.0134166  
C182     C      0.517320000000     0.171420000000     0.917950000000    -0.01355    
C183     C      0.468940000000     0.167220000000     0.845780000000    -0.0144062  
C184     C      0.993050000000     0.179130000000     0.937940000000    -0.0150101  
C185     C      0.772540000000     0.085940000000     0.798900000000    -0.0139168  
C186     C      0.811960000000     0.139170000000     0.768400000000    -0.0139943  
C187     C      0.778990000000     0.096710000000     0.857170000000    -0.013891   
C188     C      0.818230000000     0.149910000000     0.826660000000    -0.0139015  
C189     C      0.679570000000     0.408650000000     0.284130000000    -0.0145553  
C190     C      0.677850000000     0.361220000000     0.322580000000    -0.0147521  
C191     C      0.678640000000     0.396420000000     0.227770000000    -0.0133311  
C192     C      0.677070000000     0.349380000000     0.265890000000    -0.0132544  
C193     C      0.814500000000     0.484210000000     0.002410000000    -0.0142847  
C194     C      0.830090000000     0.003260000000     0.097690000000    -0.0150709  
C195     C      0.845970000000     0.009870000000     0.983250000000    -0.0136534  
C196     C      0.861190000000     0.028740000000     0.076590000000    -0.0131197  
C197     C      0.702980000000     0.321980000000     0.892330000000    -0.0135811  
C198     C      0.658310000000     0.323000000000     0.934940000000    -0.0134623  
C199     C      0.713930000000     0.317670000000     0.947130000000    -0.0143396  
C200     C      0.668590000000     0.318310000000     0.990020000000    -0.0143972  
C201     C      0.750860000000     0.165070000000     0.465050000000    -0.0132849  
C202     C      0.780240000000     0.207610000000     0.530410000000    -0.0135481  
C203     C      0.780490000000     0.173630000000     0.434490000000    -0.0147122  
C204     C      0.810250000000     0.217250000000     0.499870000000    -0.0147374  
C205     C      0.974170000000     0.343390000000     0.375090000000    -0.0141024  
C206     C      0.968080000000     0.293630000000     0.410320000000    -0.0138327  
C207     C      0.506180000000     0.352150000000     0.353490000000    -0.0141917  
C208     C      0.499610000000     0.301980000000     0.387400000000    -0.013906   
C209     C      0.805900000000     0.297100000000     0.193900000000    -0.0141268  
C210     C      0.823320000000     0.334840000000     0.270560000000    -0.0144161  
C211     C      0.815410000000     0.323710000000     0.154580000000    -0.0138827  
C212     C      0.831850000000     0.361180000000     0.230660000000    -0.0140088  
C213     C      0.887980000000     0.211600000000     0.101440000000    -0.0141735  
C214     C      0.843500000000     0.163410000000     0.139990000000    -0.0140274  
C215     C      0.901490000000     0.221660000000     0.157610000000    -0.0138053  
C216     C      0.857350000000     0.173430000000     0.195910000000    -0.0139275  
C217     C      0.872790000000     0.724300000000     0.236320000000     0.339524   
C218     C      0.822680000000     0.723910000000     0.403330000000     0.338218   
C219     C      0.925660000000     0.793940000000     0.360020000000     0.341893   
C220     C      0.836480000000     0.793230000000     0.268030000000     0.340257   
C221     C      0.713640000000     0.878870000000     0.193130000000     0.343773   
C222     C      0.720590000000     0.847220000000     0.030290000000     0.33926    
C223     C      0.798190000000     0.947660000000     0.077900000000     0.340093   
C224     C      0.796770000000     0.861060000000     0.160280000000     0.339436   
C225     C      0.831030000000     0.623910000000     0.898190000000     0.339829   
C226     C      0.870420000000     0.660820000000     0.058810000000     0.339989   
C227     C      0.863820000000     0.564520000000     0.005420000000     0.340166   
C228     C      0.936360000000     0.650990000000     0.926800000000     0.340013   
C229     C      0.649740000000     0.787270000000     0.859920000000     0.33938    
C230     C      0.605680000000     0.773750000000     0.700370000000     0.34038    
C231     C      0.628820000000     0.696300000000     0.760050000000     0.339144   
C232     C      0.549100000000     0.696200000000     0.837410000000     0.34018    
C233     C      0.745190000000     0.654260000000     0.562300000000     0.340481   
C234     C      0.760310000000     0.611710000000     0.726110000000     0.34082    
C235     C      0.672500000000     0.623330000000     0.698490000000     0.343727   
C236     C      0.689100000000     0.548930000000     0.605570000000     0.342093   
C237     C      0.614090000000     0.853710000000     0.546570000000     0.338683   
C238     C      0.647160000000     0.882310000000     0.362850000000     0.337779   
C239     C      0.548110000000     0.850900000000     0.404340000000     0.340746   
C240     C      0.634720000000     0.945020000000     0.487880000000     0.340733   
C241     C      0.694470000000     0.509270000000     0.555370000000    -0.0137046  
C242     C      0.642650000000     0.497890000000     0.590050000000    -0.0138113  
C243     C      0.680210000000     0.996960000000     0.500470000000    -0.0135958  
C244     C      0.628380000000     0.485040000000     0.535180000000    -0.0142483  
C245     C      0.627520000000     0.631020000000     0.690630000000    -0.0129061  
C246     C      0.654600000000     0.639700000000     0.777770000000    -0.0129489  
C247     C      0.633590000000     0.664110000000     0.690340000000    -0.0148349  
C248     C      0.661000000000     0.672940000000     0.779770000000    -0.01498    
C249     C      0.640870000000     0.832080000000     0.598740000000    -0.0137896  
C250     C      0.595060000000     0.832890000000     0.637350000000    -0.0139645  
C251     C      0.626350000000     0.797900000000     0.612460000000    -0.0142591  
C252     C      0.580650000000     0.798800000000     0.652600000000    -0.0142452  
C253     C      0.493230000000     0.659300000000     0.827210000000    -0.0133906  
C254     C      0.517320000000     0.671420000000     0.917950000000    -0.0135311  
C255     C      0.468930000000     0.667220000000     0.845780000000    -0.014462   
C256     C      0.993050000000     0.679130000000     0.937940000000    -0.0150194  
C257     C      0.772540000000     0.585940000000     0.798900000000    -0.013875   
C258     C      0.811960000000     0.639170000000     0.768400000000    -0.0140014  
C259     C      0.778990000000     0.596710000000     0.857170000000    -0.0139481  
C260     C      0.818230000000     0.649910000000     0.826660000000    -0.0138837  
C261     C      0.679570000000     0.908660000000     0.284130000000    -0.0147351  
C262     C      0.677850000000     0.861220000000     0.322580000000    -0.0147152  
C263     C      0.678640000000     0.896420000000     0.227770000000    -0.0132384  
C264     C      0.677070000000     0.849380000000     0.265890000000    -0.0132963  
C265     C      0.814500000000     0.984210000000     0.002410000000    -0.0141257  
C266     C      0.830090000000     0.503260000000     0.097690000000    -0.0148305  
C267     C      0.845960000000     0.509870000000     0.983250000000    -0.0134004  
C268     C      0.861190000000     0.528740000000     0.076590000000    -0.0132111  
C269     C      0.702980000000     0.821970000000     0.892330000000    -0.0135617  
C270     C      0.658310000000     0.823000000000     0.934940000000    -0.0134559  
C271     C      0.713930000000     0.817670000000     0.947130000000    -0.0143286  
C272     C      0.668590000000     0.818310000000     0.990020000000    -0.0144197  
C273     C      0.750860000000     0.665070000000     0.465050000000    -0.0132636  
C274     C      0.780240000000     0.707610000000     0.530410000000    -0.0135204  
C275     C      0.780490000000     0.673630000000     0.434490000000    -0.0147817  
C276     C      0.810250000000     0.717250000000     0.499870000000    -0.0147485  
C277     C      0.974170000000     0.843390000000     0.375090000000    -0.0141045  
C278     C      0.968080000000     0.793630000000     0.410320000000    -0.0138406  
C279     C      0.506180000000     0.852150000000     0.353490000000    -0.0141631  
C280     C      0.499610000000     0.801980000000     0.387400000000    -0.0139474  
C281     C      0.805890000000     0.797100000000     0.193900000000    -0.0141865  
C282     C      0.823320000000     0.834840000000     0.270560000000    -0.0144152  
C283     C      0.815410000000     0.823710000000     0.154580000000    -0.0138556  
C284     C      0.831850000000     0.861180000000     0.230650000000    -0.013981   
C285     C      0.887980000000     0.711600000000     0.101440000000    -0.0142451  
C286     C      0.843500000000     0.663410000000     0.140000000000    -0.0140609  
C287     C      0.901490000000     0.721660000000     0.157610000000    -0.0137291  
C288     C      0.857350000000     0.673430000000     0.195910000000    -0.0139122  
Cd1      Cd     0.363810000000     0.260030000000     0.317470000000     0.507727   
Cd2      Cd     0.259370000000     0.385080000000     0.116310000000     0.507354   
Cd3      Cd     0.375510000000     0.124900000000     0.973020000000     0.508189   
Cd4      Cd     0.107930000000     0.238440000000     0.789760000000     0.509085   
Cd5      Cd     0.216850000000     0.110360000000     0.648650000000     0.508659   
Cd6      Cd     0.109530000000     0.382600000000     0.449820000000     0.508535   
Cd7      Cd     0.363810000000     0.760030000000     0.317470000000     0.507731   
Cd8      Cd     0.259370000000     0.885080000000     0.116310000000     0.507351   
Cd9      Cd     0.375510000000     0.624900000000     0.973020000000     0.508205   
Cd10     Cd     0.107930000000     0.738440000000     0.789760000000     0.509089   
Cd11     Cd     0.216850000000     0.610360000000     0.648650000000     0.508662   
Cd12     Cd     0.109520000000     0.882600000000     0.449820000000     0.508538   
Cd13     Cd     0.863810000000     0.260030000000     0.317470000000     0.507722   
Cd14     Cd     0.759370000000     0.385080000000     0.116310000000     0.507352   
Cd15     Cd     0.875510000000     0.124900000000     0.973020000000     0.508197   
Cd16     Cd     0.607930000000     0.238440000000     0.789760000000     0.509078   
Cd17     Cd     0.716850000000     0.110360000000     0.648650000000     0.508657   
Cd18     Cd     0.609530000000     0.382600000000     0.449820000000     0.508509   
Cd19     Cd     0.863810000000     0.760030000000     0.317470000000     0.507724   
Cd20     Cd     0.759370000000     0.885080000000     0.116310000000     0.507326   
Cd21     Cd     0.875510000000     0.624900000000     0.973020000000     0.5082     
Cd22     Cd     0.607930000000     0.738440000000     0.789760000000     0.509095   
Cd23     Cd     0.716850000000     0.610360000000     0.648650000000     0.50866    
Cd24     Cd     0.609520000000     0.882600000000     0.449820000000     0.508528   
H1       H      0.139530000000     0.978320000000     0.615490000000     0.0498767  
H2       H      0.194300000000     0.990140000000     0.578220000000     0.0501197  
H3       H      0.193130000000     0.487130000000     0.480260000000     0.0542998  
H4       H      0.129980000000     0.008310000000     0.609190000000     0.0543506  
H5       H      0.104050000000     0.966420000000     0.540540000000     0.0544565  
H6       H      0.128300000000     0.003900000000     0.511850000000     0.0506429  
H7       H      0.218890000000     0.027690000000     0.550140000000     0.0543029  
H8       H      0.182860000000     0.016680000000     0.475980000000     0.0504674  
H9       H      0.132430000000     0.124760000000     0.798750000000     0.0473719  
H10      H      0.104830000000     0.116110000000     0.710100000000     0.0476747  
H11      H      0.113670000000     0.164300000000     0.671050000000     0.0545254  
H12      H      0.173110000000     0.138100000000     0.799510000000     0.0530069  
H13      H      0.159790000000     0.179050000000     0.822100000000     0.0539564  
H14      H      0.184920000000     0.188440000000     0.765420000000     0.0529726  
H15      H      0.126080000000     0.122880000000     0.648810000000     0.0537242  
H16      H      0.154320000000     0.178410000000     0.665370000000     0.052988   
H17      H      0.108170000000     0.347010000000     0.672440000000     0.0484172  
H18      H      0.156110000000     0.345700000000     0.632430000000     0.0488298  
H19      H      0.145010000000     0.292610000000     0.620910000000     0.0546799  
H20      H      0.076390000000     0.338110000000     0.628480000000     0.0536687  
H21      H      0.067110000000     0.294540000000     0.690010000000     0.053989   
H22      H      0.064370000000     0.284750000000     0.620350000000     0.0510548  
H23      H      0.155470000000     0.337120000000     0.562490000000     0.0545951  
H24      H      0.113410000000     0.284240000000     0.576870000000     0.0518468  
H25      H      0.508960000000     0.146710000000     0.926740000000     0.0477074  
H26      H      0.983780000000     0.134130000000     0.832980000000     0.0479338  
H27      H      0.447080000000     0.152310000000     0.823950000000     0.0543256  
H28      H      0.039160000000     0.185450000000     0.940340000000     0.0535494  
H29      H      0.488050000000     0.172330000000     0.980690000000     0.0538038  
H30      H      0.502970000000     0.204530000000     0.935590000000     0.0522415  
H31      H      0.997600000000     0.164320000000     0.783790000000     0.0539785  
H32      H      0.976840000000     0.191550000000     0.834610000000     0.0525988  
H33      H      0.328990000000     0.132210000000     0.756370000000     0.0507699  
H34      H      0.287130000000     0.075720000000     0.788560000000     0.0503442  
H35      H      0.275340000000     0.077070000000     0.882940000000     0.0540389  
H36      H      0.315640000000     0.158820000000     0.742640000000     0.0544461  
H37      H      0.342670000000     0.168520000000     0.830690000000     0.0545197  
H38      H      0.303380000000     0.159860000000     0.836960000000     0.0499569  
H39      H      0.248020000000     0.067520000000     0.795010000000     0.0540731  
H40      H      0.262030000000     0.103730000000     0.869360000000     0.0500661  
H41      H      0.202170000000     0.373320000000     0.336700000000     0.0513458  
H42      H      0.204060000000     0.424690000000     0.294910000000     0.0516249  
H43      H      0.191300000000     0.416240000000     0.200120000000     0.054157   
H44      H      0.164390000000     0.341150000000     0.349380000000     0.0544388  
H45      H      0.188680000000     0.335390000000     0.265780000000     0.0533155  
H46      H      0.152560000000     0.333990000000     0.254430000000     0.0488711  
H47      H      0.167390000000     0.422100000000     0.283880000000     0.0545274  
H48      H      0.154170000000     0.383440000000     0.214530000000     0.0490239  
H49      H      0.314710000000     0.013110000000     0.103330000000     0.0530774  
H50      H      0.297420000000     0.492000000000     0.996830000000     0.052601   
H51      H      0.343830000000     0.016580000000     0.941790000000     0.0534225  
H52      H      0.333730000000     0.995770000000     0.137570000000     0.0543033  
H53      H      0.370010000000     0.049200000000     0.103220000000     0.0536821  
H54      H      0.377800000000     0.020140000000     0.078130000000     0.0474212  
H55      H      0.307280000000     0.463610000000     0.976650000000     0.0533635  
H56      H      0.362040000000     0.000600000000     0.982390000000     0.0473215  
H57      H      0.168670000000     0.348200000000     0.928010000000     0.0487072  
H58      H      0.214960000000     0.347080000000     0.883350000000     0.0486968  
H59      H      0.239530000000     0.329340000000     0.947050000000     0.0549187  
H60      H      0.132810000000     0.312530000000     0.934590000000     0.0537697  
H61      H      0.162100000000     0.330250000000     0.020450000000     0.0538819  
H62      H      0.155800000000     0.293240000000     0.999350000000     0.0515317  
H63      H      0.209790000000     0.310640000000     0.861270000000     0.0541596  
H64      H      0.204890000000     0.292610000000     0.953420000000     0.0518502  
H65      H      0.270130000000     0.221470000000     0.515020000000     0.0481363  
H66      H      0.240020000000     0.177530000000     0.446520000000     0.0482478  
H67      H      0.274810000000     0.168560000000     0.391360000000     0.0546801  
H68      H      0.285570000000     0.213160000000     0.573500000000     0.0539496  
H69      H      0.325070000000     0.242740000000     0.502250000000     0.054116   
H70      H      0.322670000000     0.206900000000     0.520220000000     0.0519755  
H71      H      0.234550000000     0.139930000000     0.460690000000     0.0535895  
H72      H      0.289560000000     0.158670000000     0.448880000000     0.0524243  
H73      H      0.471270000000     0.301330000000     0.452730000000     0.0507704  
H74      H      0.477130000000     0.353950000000     0.415350000000     0.0508541  
H75      H      0.021260000000     0.377610000000     0.355310000000     0.0544285  
H76      H      0.453020000000     0.268150000000     0.409820000000     0.0540368  
H77      H      0.010130000000     0.291450000000     0.412770000000     0.0540347  
H78      H      0.996110000000     0.291770000000     0.346740000000     0.0495241  
H79      H      0.463590000000     0.353400000000     0.348600000000     0.0543912  
H80      H      0.003670000000     0.345160000000     0.310750000000     0.0496142  
H81      H      0.299740000000     0.327200000000     0.285940000000     0.0503353  
H82      H      0.280880000000     0.286910000000     0.202570000000     0.0508351  
H83      H      0.300560000000     0.315080000000     0.118440000000     0.054341   
H84      H      0.339490000000     0.343770000000     0.305030000000     0.0543278  
H85      H      0.328340000000     0.379220000000     0.249840000000     0.0540102  
H86      H      0.356780000000     0.371660000000     0.221030000000     0.0493271  
H87      H      0.309240000000     0.279000000000     0.174540000000     0.0537482  
H88      H      0.339600000000     0.331930000000     0.141960000000     0.0494384  
H89      H      0.326480000000     0.171220000000     0.133790000000     0.0506976  
H90      H      0.373950000000     0.222600000000     0.092230000000     0.0502585  
H91      H      0.414120000000     0.247250000000     0.159810000000     0.0533537  
H92      H      0.330910000000     0.137810000000     0.137870000000     0.0543259  
H93      H      0.338390000000     0.164360000000     0.225820000000     0.0549541  
H94      H      0.371870000000     0.162870000000     0.204270000000     0.0501315  
H95      H      0.407160000000     0.220300000000     0.072010000000     0.054338   
H96      H      0.418430000000     0.213800000000     0.164300000000     0.0495005  
H97      H      0.139530000000     0.478310000000     0.615490000000     0.0498709  
H98      H      0.194300000000     0.490140000000     0.578220000000     0.0499782  
H99      H      0.193130000000     0.987120000000     0.480260000000     0.0542601  
H100     H      0.129980000000     0.508310000000     0.609190000000     0.0544537  
H101     H      0.104050000000     0.466420000000     0.540540000000     0.0544544  
H102     H      0.128300000000     0.503900000000     0.511850000000     0.0507426  
H103     H      0.218890000000     0.527690000000     0.550140000000     0.0542575  
H104     H      0.182860000000     0.516680000000     0.475980000000     0.0506092  
H105     H      0.132430000000     0.624760000000     0.798750000000     0.0473839  
H106     H      0.104830000000     0.616110000000     0.710100000000     0.0476797  
H107     H      0.113670000000     0.664300000000     0.671060000000     0.0545366  
H108     H      0.173110000000     0.638100000000     0.799510000000     0.0530198  
H109     H      0.159790000000     0.679050000000     0.822100000000     0.0539538  
H110     H      0.184920000000     0.688450000000     0.765420000000     0.052971   
H111     H      0.126080000000     0.622880000000     0.648810000000     0.053729   
H112     H      0.154320000000     0.678410000000     0.665370000000     0.0529935  
H113     H      0.108170000000     0.847010000000     0.672440000000     0.0484294  
H114     H      0.156110000000     0.845700000000     0.632430000000     0.0488521  
H115     H      0.145010000000     0.792610000000     0.620910000000     0.0546812  
H116     H      0.076390000000     0.838110000000     0.628480000000     0.0536768  
H117     H      0.067110000000     0.794550000000     0.690010000000     0.0539722  
H118     H      0.064370000000     0.784750000000     0.620340000000     0.0510451  
H119     H      0.155460000000     0.837110000000     0.562490000000     0.0546135  
H120     H      0.113410000000     0.784240000000     0.576870000000     0.0518378  
H121     H      0.508960000000     0.646710000000     0.926740000000     0.0477074  
H122     H      0.983780000000     0.634130000000     0.832980000000     0.047934   
H123     H      0.447080000000     0.652310000000     0.823950000000     0.0543488  
H124     H      0.039160000000     0.685460000000     0.940340000000     0.0535504  
H125     H      0.488050000000     0.672330000000     0.980690000000     0.0538081  
H126     H      0.502970000000     0.704530000000     0.935590000000     0.0522496  
H127     H      0.997600000000     0.664320000000     0.783790000000     0.0539789  
H128     H      0.976840000000     0.691550000000     0.834610000000     0.0526041  
H129     H      0.328990000000     0.632210000000     0.756370000000     0.0507709  
H130     H      0.287130000000     0.575720000000     0.788570000000     0.0503483  
H131     H      0.275340000000     0.577080000000     0.882940000000     0.0540682  
H132     H      0.315640000000     0.658820000000     0.742640000000     0.0544463  
H133     H      0.342670000000     0.668510000000     0.830690000000     0.0545386  
H134     H      0.303380000000     0.659860000000     0.836960000000     0.0499682  
H135     H      0.248010000000     0.567520000000     0.795010000000     0.0540765  
H136     H      0.262030000000     0.603730000000     0.869360000000     0.0500817  
H137     H      0.202170000000     0.873320000000     0.336700000000     0.0513451  
H138     H      0.204060000000     0.924690000000     0.294910000000     0.0516902  
H139     H      0.191290000000     0.916240000000     0.200110000000     0.054142   
H140     H      0.164390000000     0.841150000000     0.349380000000     0.0544392  
H141     H      0.188680000000     0.835390000000     0.265780000000     0.0533176  
H142     H      0.152560000000     0.833990000000     0.254430000000     0.0488763  
H143     H      0.167390000000     0.922100000000     0.283880000000     0.0545986  
H144     H      0.154170000000     0.883440000000     0.214530000000     0.0490108  
H145     H      0.314710000000     0.513110000000     0.103330000000     0.0530611  
H146     H      0.297420000000     0.992000000000     0.996830000000     0.0526244  
H147     H      0.343830000000     0.516580000000     0.941780000000     0.0534072  
H148     H      0.333730000000     0.495770000000     0.137570000000     0.0541635  
H149     H      0.370010000000     0.549200000000     0.103220000000     0.053719   
H150     H      0.377800000000     0.520140000000     0.078120000000     0.0474736  
H151     H      0.307280000000     0.963610000000     0.976650000000     0.0533669  
H152     H      0.362030000000     0.500600000000     0.982380000000     0.0473153  
H153     H      0.168670000000     0.848200000000     0.928010000000     0.048718   
H154     H      0.214970000000     0.847080000000     0.883340000000     0.0486918  
H155     H      0.239530000000     0.829340000000     0.947050000000     0.0549236  
H156     H      0.132810000000     0.812530000000     0.934590000000     0.0537726  
H157     H      0.162100000000     0.830250000000     0.020440000000     0.0538949  
H158     H      0.155800000000     0.793240000000     0.999350000000     0.0515373  
H159     H      0.209790000000     0.810630000000     0.861270000000     0.0541555  
H160     H      0.204890000000     0.792610000000     0.953420000000     0.0518456  
H161     H      0.270130000000     0.721470000000     0.515020000000     0.0481326  
H162     H      0.240020000000     0.677530000000     0.446520000000     0.0482467  
H163     H      0.274810000000     0.668560000000     0.391370000000     0.0547036  
H164     H      0.285570000000     0.713160000000     0.573510000000     0.0539436  
H165     H      0.325070000000     0.742740000000     0.502250000000     0.0541218  
H166     H      0.322670000000     0.706900000000     0.520220000000     0.0519812  
H167     H      0.234550000000     0.639930000000     0.460690000000     0.0535886  
H168     H      0.289550000000     0.658670000000     0.448880000000     0.052451   
H169     H      0.471260000000     0.801330000000     0.452730000000     0.0507601  
H170     H      0.477120000000     0.853950000000     0.415350000000     0.0508583  
H171     H      0.021260000000     0.877610000000     0.355310000000     0.0544402  
H172     H      0.453010000000     0.768150000000     0.409820000000     0.054031   
H173     H      0.010130000000     0.791450000000     0.412770000000     0.0540395  
H174     H      0.996110000000     0.791770000000     0.346740000000     0.049525   
H175     H      0.463590000000     0.853400000000     0.348600000000     0.0543971  
H176     H      0.003670000000     0.845160000000     0.310750000000     0.0496209  
H177     H      0.299740000000     0.827200000000     0.285940000000     0.0503391  
H178     H      0.280880000000     0.786910000000     0.202570000000     0.0508532  
H179     H      0.300550000000     0.815080000000     0.118440000000     0.0543418  
H180     H      0.339490000000     0.843780000000     0.305030000000     0.0543251  
H181     H      0.328340000000     0.879220000000     0.249840000000     0.0540063  
H182     H      0.356780000000     0.871660000000     0.221020000000     0.049327   
H183     H      0.309240000000     0.779000000000     0.174540000000     0.0537671  
H184     H      0.339600000000     0.831930000000     0.141960000000     0.0494386  
H185     H      0.326480000000     0.671220000000     0.133790000000     0.0507048  
H186     H      0.373950000000     0.722590000000     0.092230000000     0.0502828  
H187     H      0.414120000000     0.747250000000     0.159810000000     0.0533528  
H188     H      0.330910000000     0.637810000000     0.137880000000     0.0543303  
H189     H      0.338390000000     0.664360000000     0.225820000000     0.0549568  
H190     H      0.371870000000     0.662870000000     0.204270000000     0.0501352  
H191     H      0.407160000000     0.720300000000     0.072010000000     0.0543524  
H192     H      0.418430000000     0.713800000000     0.164300000000     0.0495002  
H193     H      0.639530000000     0.978320000000     0.615490000000     0.0498676  
H194     H      0.694300000000     0.990140000000     0.578220000000     0.0501143  
H195     H      0.693130000000     0.487130000000     0.480260000000     0.0542974  
H196     H      0.629980000000     0.008310000000     0.609190000000     0.0543393  
H197     H      0.604050000000     0.966420000000     0.540540000000     0.0544368  
H198     H      0.628300000000     0.003900000000     0.511850000000     0.0506314  
H199     H      0.718890000000     0.027690000000     0.550140000000     0.0542995  
H200     H      0.682860000000     0.016680000000     0.475980000000     0.0504652  
H201     H      0.632430000000     0.124760000000     0.798750000000     0.0473573  
H202     H      0.604830000000     0.116110000000     0.710100000000     0.0476534  
H203     H      0.613670000000     0.164300000000     0.671050000000     0.0545097  
H204     H      0.673110000000     0.138100000000     0.799510000000     0.0530009  
H205     H      0.659790000000     0.179050000000     0.822100000000     0.053951   
H206     H      0.684920000000     0.188440000000     0.765420000000     0.0529712  
H207     H      0.626080000000     0.122880000000     0.648810000000     0.05371    
H208     H      0.654320000000     0.178410000000     0.665370000000     0.0529838  
H209     H      0.608170000000     0.347010000000     0.672440000000     0.0484043  
H210     H      0.656120000000     0.345700000000     0.632430000000     0.048819   
H211     H      0.645010000000     0.292610000000     0.620910000000     0.0546634  
H212     H      0.576390000000     0.338110000000     0.628480000000     0.053641   
H213     H      0.567110000000     0.294540000000     0.690010000000     0.0539755  
H214     H      0.564370000000     0.284750000000     0.620350000000     0.0510406  
H215     H      0.655470000000     0.337120000000     0.562490000000     0.0545893  
H216     H      0.613410000000     0.284240000000     0.576870000000     0.0518171  
H217     H      0.008960000000     0.146710000000     0.926740000000     0.0477327  
H218     H      0.483780000000     0.134130000000     0.832980000000     0.0479587  
H219     H      0.947080000000     0.152310000000     0.823950000000     0.0543315  
H220     H      0.539160000000     0.185450000000     0.940340000000     0.0535669  
H221     H      0.988050000000     0.172330000000     0.980690000000     0.0538361  
H222     H      0.002970000000     0.204530000000     0.935590000000     0.0524586  
H223     H      0.497600000000     0.164320000000     0.783790000000     0.054015   
H224     H      0.476840000000     0.191550000000     0.834610000000     0.0526269  
H225     H      0.828990000000     0.132210000000     0.756370000000     0.0507598  
H226     H      0.787130000000     0.075720000000     0.788560000000     0.0503406  
H227     H      0.775340000000     0.077070000000     0.882940000000     0.054036   
H228     H      0.815640000000     0.158820000000     0.742640000000     0.0544363  
H229     H      0.842670000000     0.168520000000     0.830690000000     0.0545219  
H230     H      0.803390000000     0.159860000000     0.836960000000     0.0499709  
H231     H      0.748020000000     0.067520000000     0.795010000000     0.0540693  
H232     H      0.762030000000     0.103730000000     0.869360000000     0.0500634  
H233     H      0.702170000000     0.373320000000     0.336700000000     0.0513483  
H234     H      0.704060000000     0.424690000000     0.294910000000     0.051624   
H235     H      0.691300000000     0.416240000000     0.200120000000     0.054151   
H236     H      0.664390000000     0.341150000000     0.349380000000     0.0544422  
H237     H      0.688690000000     0.335390000000     0.265780000000     0.0532986  
H238     H      0.652560000000     0.333990000000     0.254430000000     0.0488497  
H239     H      0.667390000000     0.422100000000     0.283880000000     0.0545214  
H240     H      0.654170000000     0.383440000000     0.214530000000     0.0490107  
H241     H      0.814710000000     0.013110000000     0.103330000000     0.0530751  
H242     H      0.797420000000     0.492000000000     0.996830000000     0.0526038  
H243     H      0.843830000000     0.016580000000     0.941790000000     0.0534286  
H244     H      0.833730000000     0.995770000000     0.137570000000     0.0542956  
H245     H      0.870010000000     0.049200000000     0.103220000000     0.0536743  
H246     H      0.877800000000     0.020140000000     0.078130000000     0.0474105  
H247     H      0.807280000000     0.463610000000     0.976650000000     0.0533635  
H248     H      0.862030000000     0.000600000000     0.982390000000     0.0473321  
H249     H      0.668670000000     0.348200000000     0.928010000000     0.0487024  
H250     H      0.714970000000     0.347080000000     0.883350000000     0.0486867  
H251     H      0.739530000000     0.329340000000     0.947050000000     0.0549148  
H252     H      0.632810000000     0.312530000000     0.934590000000     0.0537558  
H253     H      0.662100000000     0.330250000000     0.020450000000     0.0538726  
H254     H      0.655800000000     0.293240000000     0.999350000000     0.0515217  
H255     H      0.709790000000     0.310640000000     0.861270000000     0.054154   
H256     H      0.704890000000     0.292610000000     0.953420000000     0.0518468  
H257     H      0.770130000000     0.221470000000     0.515020000000     0.0481329  
H258     H      0.740020000000     0.177530000000     0.446520000000     0.0482429  
H259     H      0.774810000000     0.168560000000     0.391360000000     0.0546768  
H260     H      0.785570000000     0.213160000000     0.573500000000     0.0539455  
H261     H      0.825070000000     0.242740000000     0.502250000000     0.0541094  
H262     H      0.822670000000     0.206900000000     0.520220000000     0.051969   
H263     H      0.734550000000     0.139930000000     0.460690000000     0.053585   
H264     H      0.789560000000     0.158670000000     0.448880000000     0.0524206  
H265     H      0.971270000000     0.301330000000     0.452730000000     0.0506938  
H266     H      0.977120000000     0.353950000000     0.415350000000     0.0508331  
H267     H      0.521260000000     0.377610000000     0.355310000000     0.054417   
H268     H      0.953020000000     0.268150000000     0.409820000000     0.0539775  
H269     H      0.510130000000     0.291450000000     0.412770000000     0.0538264  
H270     H      0.496110000000     0.291770000000     0.346740000000     0.0495019  
H271     H      0.963590000000     0.353400000000     0.348600000000     0.0543809  
H272     H      0.503670000000     0.345160000000     0.310750000000     0.0495744  
H273     H      0.799740000000     0.327200000000     0.285940000000     0.0503323  
H274     H      0.780880000000     0.286910000000     0.202570000000     0.050832   
H275     H      0.800560000000     0.315080000000     0.118440000000     0.0543365  
H276     H      0.839490000000     0.343770000000     0.305030000000     0.0543206  
H277     H      0.828340000000     0.379220000000     0.249840000000     0.0540033  
H278     H      0.856780000000     0.371660000000     0.221030000000     0.0493155  
H279     H      0.809240000000     0.279000000000     0.174540000000     0.0537444  
H280     H      0.839600000000     0.331930000000     0.141960000000     0.0494296  
H281     H      0.826480000000     0.171220000000     0.133790000000     0.0506924  
H282     H      0.873950000000     0.222600000000     0.092230000000     0.0502505  
H283     H      0.914120000000     0.247250000000     0.159810000000     0.0533369  
H284     H      0.830910000000     0.137810000000     0.137870000000     0.0543181  
H285     H      0.838390000000     0.164360000000     0.225820000000     0.0549502  
H286     H      0.871870000000     0.162870000000     0.204270000000     0.0501236  
H287     H      0.907160000000     0.220300000000     0.072010000000     0.054322   
H288     H      0.918430000000     0.213800000000     0.164300000000     0.0494829  
H289     H      0.639530000000     0.478310000000     0.615490000000     0.0498617  
H290     H      0.694300000000     0.490140000000     0.578220000000     0.0499757  
H291     H      0.693130000000     0.987120000000     0.480260000000     0.0542582  
H292     H      0.629980000000     0.508310000000     0.609190000000     0.0544399  
H293     H      0.604050000000     0.466420000000     0.540540000000     0.0544348  
H294     H      0.628300000000     0.503900000000     0.511850000000     0.0507289  
H295     H      0.718890000000     0.527690000000     0.550140000000     0.0542549  
H296     H      0.682860000000     0.516680000000     0.475980000000     0.0506042  
H297     H      0.632430000000     0.624760000000     0.798750000000     0.0473689  
H298     H      0.604830000000     0.616110000000     0.710100000000     0.0476581  
H299     H      0.613670000000     0.664300000000     0.671060000000     0.0545215  
H300     H      0.673110000000     0.638100000000     0.799510000000     0.0530138  
H301     H      0.659790000000     0.679050000000     0.822100000000     0.0539481  
H302     H      0.684920000000     0.688450000000     0.765420000000     0.0529698  
H303     H      0.626080000000     0.622880000000     0.648810000000     0.0537147  
H304     H      0.654320000000     0.678410000000     0.665370000000     0.0529898  
H305     H      0.608170000000     0.847010000000     0.672440000000     0.0484196  
H306     H      0.656110000000     0.845700000000     0.632430000000     0.0488502  
H307     H      0.645010000000     0.792610000000     0.620910000000     0.0546746  
H308     H      0.576390000000     0.838110000000     0.628480000000     0.0536553  
H309     H      0.567110000000     0.794550000000     0.690010000000     0.0539419  
H310     H      0.564370000000     0.784750000000     0.620340000000     0.0510148  
H311     H      0.655460000000     0.837110000000     0.562490000000     0.054611   
H312     H      0.613410000000     0.784240000000     0.576870000000     0.0518224  
H313     H      0.008960000000     0.646710000000     0.926740000000     0.0477351  
H314     H      0.483780000000     0.634130000000     0.832980000000     0.0479554  
H315     H      0.947080000000     0.652310000000     0.823950000000     0.0543341  
H316     H      0.539160000000     0.685460000000     0.940340000000     0.0535716  
H317     H      0.988050000000     0.672330000000     0.980690000000     0.0538388  
H318     H      0.002970000000     0.704530000000     0.935590000000     0.0524664  
H319     H      0.497600000000     0.664320000000     0.783790000000     0.0540105  
H320     H      0.476840000000     0.691550000000     0.834610000000     0.0526506  
H321     H      0.828990000000     0.632210000000     0.756370000000     0.0507639  
H322     H      0.787130000000     0.575720000000     0.788570000000     0.0503447  
H323     H      0.775340000000     0.577080000000     0.882940000000     0.054066   
H324     H      0.815640000000     0.658820000000     0.742640000000     0.0544402  
H325     H      0.842670000000     0.668510000000     0.830690000000     0.0545308  
H326     H      0.803380000000     0.659860000000     0.836960000000     0.0499644  
H327     H      0.748010000000     0.567520000000     0.795010000000     0.0540727  
H328     H      0.762030000000     0.603730000000     0.869360000000     0.0500784  
H329     H      0.702170000000     0.873320000000     0.336700000000     0.0513433  
H330     H      0.704060000000     0.924690000000     0.294910000000     0.0516882  
H331     H      0.691290000000     0.916240000000     0.200110000000     0.0541364  
H332     H      0.664390000000     0.841150000000     0.349380000000     0.0544322  
H333     H      0.688680000000     0.835390000000     0.265780000000     0.0533111  
H334     H      0.652560000000     0.833990000000     0.254430000000     0.0488632  
H335     H      0.667390000000     0.922100000000     0.283880000000     0.0545915  
H336     H      0.654170000000     0.883440000000     0.214530000000     0.0489985  
H337     H      0.814710000000     0.513110000000     0.103330000000     0.05306    
H338     H      0.797420000000     0.992000000000     0.996830000000     0.052619   
H339     H      0.843830000000     0.516580000000     0.941780000000     0.0533859  
H340     H      0.833730000000     0.495770000000     0.137570000000     0.0541575  
H341     H      0.870010000000     0.549200000000     0.103220000000     0.053709   
H342     H      0.877800000000     0.520140000000     0.078120000000     0.0474581  
H343     H      0.807280000000     0.963610000000     0.976650000000     0.053359   
H344     H      0.862040000000     0.500600000000     0.982380000000     0.047282   
H345     H      0.668670000000     0.848200000000     0.928010000000     0.0487108  
H346     H      0.714960000000     0.847080000000     0.883340000000     0.0486963  
H347     H      0.739530000000     0.829340000000     0.947050000000     0.0549239  
H348     H      0.632810000000     0.812530000000     0.934590000000     0.0537589  
H349     H      0.662100000000     0.830250000000     0.020440000000     0.0538894  
H350     H      0.655790000000     0.793240000000     0.999350000000     0.0515212  
H351     H      0.709790000000     0.810630000000     0.861270000000     0.0541557  
H352     H      0.704890000000     0.792610000000     0.953420000000     0.0518444  
H353     H      0.770130000000     0.721470000000     0.515020000000     0.0481293  
H354     H      0.740020000000     0.677530000000     0.446520000000     0.048242   
H355     H      0.774810000000     0.668560000000     0.391370000000     0.0547003  
H356     H      0.785570000000     0.713160000000     0.573510000000     0.0539395  
H357     H      0.825070000000     0.742740000000     0.502250000000     0.0541153  
H358     H      0.822670000000     0.706900000000     0.520220000000     0.0519744  
H359     H      0.734550000000     0.639930000000     0.460690000000     0.0535841  
H360     H      0.789550000000     0.658670000000     0.448880000000     0.0524471  
H361     H      0.971260000000     0.801330000000     0.452730000000     0.0506992  
H362     H      0.977120000000     0.853950000000     0.415350000000     0.0508406  
H363     H      0.521260000000     0.877610000000     0.355310000000     0.054421   
H364     H      0.953010000000     0.768150000000     0.409820000000     0.0539889  
H365     H      0.510130000000     0.791450000000     0.412770000000     0.0538364  
H366     H      0.496110000000     0.791770000000     0.346740000000     0.0495106  
H367     H      0.963590000000     0.853400000000     0.348600000000     0.05439    
H368     H      0.503670000000     0.845160000000     0.310750000000     0.0495711  
H369     H      0.799740000000     0.827200000000     0.285940000000     0.0503359  
H370     H      0.780880000000     0.786910000000     0.202570000000     0.0508534  
H371     H      0.800550000000     0.815080000000     0.118440000000     0.0543419  
H372     H      0.839490000000     0.843780000000     0.305030000000     0.0543126  
H373     H      0.828340000000     0.879220000000     0.249840000000     0.0540061  
H374     H      0.856780000000     0.871660000000     0.221020000000     0.0493184  
H375     H      0.809230000000     0.779000000000     0.174540000000     0.0537608  
H376     H      0.839600000000     0.831930000000     0.141960000000     0.0494316  
H377     H      0.826480000000     0.671220000000     0.133790000000     0.050708   
H378     H      0.873950000000     0.722590000000     0.092230000000     0.0502803  
H379     H      0.914120000000     0.747250000000     0.159810000000     0.0533214  
H380     H      0.830920000000     0.637810000000     0.137880000000     0.0543365  
H381     H      0.838390000000     0.664360000000     0.225820000000     0.0549519  
H382     H      0.871870000000     0.662870000000     0.204270000000     0.0501233  
H383     H      0.907160000000     0.720300000000     0.072010000000     0.0543414  
H384     H      0.918440000000     0.713800000000     0.164300000000     0.0494559  
N1       N      0.147140000000     0.474490000000     0.506590000000    -0.151439   
N2       N      0.175920000000     0.019930000000     0.584440000000    -0.151455   
N3       N      0.139460000000     0.177060000000     0.745000000000    -0.1508     
N4       N      0.151770000000     0.129880000000     0.721750000000    -0.152374   
N5       N      0.104670000000     0.290120000000     0.657460000000    -0.151144   
N6       N      0.116500000000     0.340090000000     0.592230000000    -0.151457   
N7       N      0.465070000000     0.164110000000     0.904370000000    -0.151034   
N8       N      0.021210000000     0.176290000000     0.859830000000    -0.151648   
N9       N      0.310310000000     0.123470000000     0.862110000000    -0.15129    
N10      N      0.280670000000     0.112360000000     0.763240000000    -0.151152   
N11      N      0.191190000000     0.375390000000     0.228190000000    -0.151651   
N12      N      0.166330000000     0.383170000000     0.323140000000    -0.150494   
N13      N      0.357790000000     0.035840000000     0.020870000000    -0.151491   
N14      N      0.315290000000     0.477280000000     0.059630000000    -0.151011   
N15      N      0.201940000000     0.329120000000     0.989900000000    -0.150824   
N16      N      0.169510000000     0.310060000000     0.893700000000    -0.15155    
N17      N      0.304020000000     0.206140000000     0.444070000000    -0.150583   
N18      N      0.258250000000     0.174750000000     0.521150000000    -0.151576   
N19      N      0.019040000000     0.335730000000     0.383210000000    -0.151488   
N20      N      0.454940000000     0.309650000000     0.380240000000    -0.15116    
N21      N      0.313890000000     0.349150000000     0.181060000000    -0.151206   
N22      N      0.323280000000     0.308430000000     0.244310000000    -0.1514     
N23      N      0.376880000000     0.207230000000     0.197960000000    -0.151051   
N24      N      0.367850000000     0.177830000000     0.099140000000    -0.151191   
N25      N      0.147140000000     0.974490000000     0.506590000000    -0.151479   
N26      N      0.175920000000     0.519930000000     0.584440000000    -0.151427   
N27      N      0.139460000000     0.677060000000     0.745000000000    -0.150802   
N28      N      0.151770000000     0.629880000000     0.721750000000    -0.152368   
N29      N      0.104670000000     0.790120000000     0.657460000000    -0.151195   
N30      N      0.116500000000     0.840090000000     0.592230000000    -0.151448   
N31      N      0.465070000000     0.664110000000     0.904370000000    -0.151021   
N32      N      0.021210000000     0.676290000000     0.859830000000    -0.151659   
N33      N      0.310310000000     0.623470000000     0.862110000000    -0.151278   
N34      N      0.280670000000     0.612360000000     0.763240000000    -0.151157   
N35      N      0.191190000000     0.875390000000     0.228190000000    -0.151658   
N36      N      0.166320000000     0.883160000000     0.323140000000    -0.150493   
N37      N      0.357790000000     0.535840000000     0.020860000000    -0.1515     
N38      N      0.315290000000     0.977280000000     0.059630000000    -0.150942   
N39      N      0.201940000000     0.829120000000     0.989890000000    -0.150801   
N40      N      0.169510000000     0.810060000000     0.893700000000    -0.151551   
N41      N      0.304020000000     0.706140000000     0.444070000000    -0.15057    
N42      N      0.258250000000     0.674750000000     0.521150000000    -0.151582   
N43      N      0.019040000000     0.835730000000     0.383210000000    -0.151486   
N44      N      0.454940000000     0.809650000000     0.380240000000    -0.15117    
N45      N      0.313890000000     0.849150000000     0.181060000000    -0.151217   
N46      N      0.323280000000     0.808430000000     0.244310000000    -0.151401   
N47      N      0.376880000000     0.707230000000     0.197960000000    -0.151053   
N48      N      0.367850000000     0.677830000000     0.099140000000    -0.15119    
N49      N      0.647140000000     0.474490000000     0.506590000000    -0.151442   
N50      N      0.675920000000     0.019930000000     0.584440000000    -0.151456   
N51      N      0.639460000000     0.177060000000     0.745000000000    -0.150804   
N52      N      0.651770000000     0.129880000000     0.721750000000    -0.152378   
N53      N      0.604680000000     0.290120000000     0.657460000000    -0.151192   
N54      N      0.616500000000     0.340090000000     0.592230000000    -0.151462   
N55      N      0.965070000000     0.164110000000     0.904370000000    -0.151001   
N56      N      0.521210000000     0.176290000000     0.859830000000    -0.151686   
N57      N      0.810310000000     0.123470000000     0.862110000000    -0.151284   
N58      N      0.780670000000     0.112360000000     0.763240000000    -0.151155   
N59      N      0.691190000000     0.375390000000     0.228190000000    -0.151661   
N60      N      0.666330000000     0.383170000000     0.323140000000    -0.150488   
N61      N      0.857790000000     0.035840000000     0.020870000000    -0.151486   
N62      N      0.815290000000     0.477280000000     0.059630000000    -0.15101    
N63      N      0.701940000000     0.329120000000     0.989900000000    -0.150825   
N64      N      0.669510000000     0.310060000000     0.893700000000    -0.151551   
N65      N      0.804020000000     0.206140000000     0.444070000000    -0.150585   
N66      N      0.758250000000     0.174750000000     0.521150000000    -0.151577   
N67      N      0.519040000000     0.335730000000     0.383210000000    -0.151595   
N68      N      0.954940000000     0.309650000000     0.380240000000    -0.151177   
N69      N      0.813890000000     0.349150000000     0.181060000000    -0.151209   
N70      N      0.823280000000     0.308430000000     0.244310000000    -0.151401   
N71      N      0.876880000000     0.207230000000     0.197960000000    -0.151054   
N72      N      0.867850000000     0.177830000000     0.099140000000    -0.151203   
N73      N      0.647140000000     0.974490000000     0.506590000000    -0.151481   
N74      N      0.675920000000     0.519930000000     0.584440000000    -0.151429   
N75      N      0.639460000000     0.677060000000     0.745000000000    -0.150805   
N76      N      0.651770000000     0.629880000000     0.721750000000    -0.152372   
N77      N      0.604670000000     0.790120000000     0.657460000000    -0.151241   
N78      N      0.616500000000     0.840090000000     0.592230000000    -0.15145    
N79      N      0.965070000000     0.664110000000     0.904370000000    -0.150999   
N80      N      0.521210000000     0.676290000000     0.859830000000    -0.151725   
N81      N      0.810310000000     0.623470000000     0.862110000000    -0.151279   
N82      N      0.780670000000     0.612360000000     0.763240000000    -0.151158   
N83      N      0.691190000000     0.875390000000     0.228190000000    -0.151661   
N84      N      0.666320000000     0.883160000000     0.323140000000    -0.150495   
N85      N      0.857790000000     0.535840000000     0.020860000000    -0.151502   
N86      N      0.815290000000     0.977280000000     0.059630000000    -0.150947   
N87      N      0.701940000000     0.829120000000     0.989890000000    -0.150773   
N88      N      0.669510000000     0.810060000000     0.893700000000    -0.151554   
N89      N      0.804020000000     0.706140000000     0.444070000000    -0.150572   
N90      N      0.758250000000     0.674750000000     0.521150000000    -0.151583   
N91      N      0.519030000000     0.835730000000     0.383210000000    -0.151528   
N92      N      0.954940000000     0.809650000000     0.380240000000    -0.151178   
N93      N      0.813890000000     0.849150000000     0.181060000000    -0.151172   
N94      N      0.823270000000     0.808430000000     0.244310000000    -0.151342   
N95      N      0.876880000000     0.707230000000     0.197960000000    -0.151065   
N96      N      0.867850000000     0.677830000000     0.099140000000    -0.151189   
O1       O      0.319420000000     0.213870000000     0.355980000000    -0.24476    
O2       O      0.350200000000     0.301480000000     0.312600000000    -0.248031   
O3       O      0.352230000000     0.211890000000     0.272030000000    -0.242414   
O4       O      0.408800000000     0.265080000000     0.365760000000    -0.251158   
O5       O      0.413820000000     0.307340000000     0.334540000000    -0.246711   
O6       O      0.389290000000     0.253410000000     0.238200000000    -0.249576   
O7       O      0.344690000000     0.251080000000     0.410920000000    -0.248932   
O8       O      0.335500000000     0.269850000000     0.246790000000    -0.252757   
O9       O      0.210250000000     0.356010000000     0.068500000000    -0.249697   
O10      O      0.295560000000     0.383210000000     0.182160000000    -0.248538   
O11      O      0.225390000000     0.400860000000     0.159840000000    -0.24795    
O12      O      0.283040000000     0.425220000000     0.046620000000    -0.251645   
O13      O      0.295900000000     0.441120000000     0.127160000000    -0.24836    
O14      O      0.223570000000     0.360060000000     0.191530000000    -0.250152   
O15      O      0.249110000000     0.356030000000     0.031870000000    -0.240895   
O16      O      0.281030000000     0.350410000000     0.118080000000    -0.247609   
O17      O      0.352110000000     0.132090000000     0.054590000000    -0.248743   
O18      O      0.432400000000     0.150220000000     0.976900000000    -0.248668   
O19      O      0.324530000000     0.101340000000     0.928850000000    -0.247713   
O20      O      0.359750000000     0.070270000000     0.957790000000    -0.248886   
O21      O      0.373510000000     0.086780000000     0.038020000000    -0.248146   
O22      O      0.357930000000     0.146880000000     0.902660000000    -0.247851   
O23      O      0.391140000000     0.172890000000     0.023350000000    -0.248057   
O24      O      0.412170000000     0.139370000000     0.898540000000    -0.248593   
O25      O      0.086640000000     0.265870000000     0.738610000000    -0.248543   
O26      O      0.073290000000     0.210780000000     0.865280000000    -0.248909   
O27      O      0.159170000000     0.275180000000     0.825840000000    -0.247597   
O28      O      0.135300000000     0.209660000000     0.805080000000    -0.247716   
O29      O      0.112440000000     0.202300000000     0.729280000000    -0.247665   
O30      O      0.120910000000     0.276830000000     0.861260000000    -0.248463   
O31      O      0.125650000000     0.265400000000     0.703950000000    -0.248794   
O32      O      0.052190000000     0.201260000000     0.787590000000    -0.248929   
O33      O      0.267360000000     0.133850000000     0.694090000000    -0.246712   
O34      O      0.173440000000     0.058320000000     0.630880000000    -0.247559   
O35      O      0.226720000000     0.125920000000     0.554080000000    -0.249754   
O36      O      0.194390000000     0.123880000000     0.724620000000    -0.252563   
O37      O      0.171190000000     0.116810000000     0.649380000000    -0.250746   
O38      O      0.250810000000     0.162450000000     0.610790000000    -0.247242   
O39      O      0.233260000000     0.088940000000     0.721870000000    -0.249278   
O40      O      0.217650000000     0.068010000000     0.600700000000    -0.248028   
O41      O      0.137490000000     0.362040000000     0.399290000000    -0.243818   
O42      O      0.106290000000     0.425500000000     0.492380000000    -0.247471   
O43      O      0.132480000000     0.359840000000     0.507770000000    -0.245339   
O44      O      0.059570000000     0.336770000000     0.428430000000    -0.252476   
O45      O      0.065150000000     0.379870000000     0.401020000000    -0.248864   
O46      O      0.093360000000     0.360900000000     0.540560000000    -0.249191   
O47      O      0.138650000000     0.402200000000     0.366040000000    -0.246689   
O48      O      0.151120000000     0.435600000000     0.465460000000    -0.250132   
O49      O      0.319420000000     0.713870000000     0.355980000000    -0.244752   
O50      O      0.350200000000     0.801480000000     0.312600000000    -0.248117   
O51      O      0.352230000000     0.711890000000     0.272030000000    -0.242411   
O52      O      0.408800000000     0.765080000000     0.365760000000    -0.251161   
O53      O      0.413820000000     0.807340000000     0.334540000000    -0.246705   
O54      O      0.389290000000     0.753410000000     0.238200000000    -0.249578   
O55      O      0.344690000000     0.751080000000     0.410920000000    -0.248926   
O56      O      0.335490000000     0.769850000000     0.246800000000    -0.252839   
O57      O      0.210250000000     0.856010000000     0.068490000000    -0.249744   
O58      O      0.295560000000     0.883210000000     0.182160000000    -0.248529   
O59      O      0.225390000000     0.900860000000     0.159840000000    -0.247936   
O60      O      0.283040000000     0.925220000000     0.046620000000    -0.251629   
O61      O      0.295900000000     0.941120000000     0.127160000000    -0.248335   
O62      O      0.223570000000     0.860060000000     0.191530000000    -0.250153   
O63      O      0.249110000000     0.856030000000     0.031860000000    -0.240899   
O64      O      0.281030000000     0.850410000000     0.118080000000    -0.247614   
O65      O      0.352120000000     0.632090000000     0.054590000000    -0.248764   
O66      O      0.432400000000     0.650220000000     0.976900000000    -0.248663   
O67      O      0.324530000000     0.601340000000     0.928850000000    -0.247704   
O68      O      0.359750000000     0.570270000000     0.957790000000    -0.24888    
O69      O      0.373510000000     0.586780000000     0.038020000000    -0.248139   
O70      O      0.357930000000     0.646880000000     0.902660000000    -0.247851   
O71      O      0.391140000000     0.672890000000     0.023350000000    -0.248058   
O72      O      0.412170000000     0.639370000000     0.898540000000    -0.24859    
O73      O      0.086640000000     0.765870000000     0.738610000000    -0.248631   
O74      O      0.073290000000     0.710780000000     0.865280000000    -0.248888   
O75      O      0.159170000000     0.775180000000     0.825840000000    -0.247595   
O76      O      0.135300000000     0.709660000000     0.805080000000    -0.247721   
O77      O      0.112440000000     0.702300000000     0.729280000000    -0.247675   
O78      O      0.120910000000     0.776830000000     0.861260000000    -0.248454   
O79      O      0.125650000000     0.765410000000     0.703950000000    -0.248792   
O80      O      0.052190000000     0.701260000000     0.787590000000    -0.248901   
O81      O      0.267360000000     0.633850000000     0.694090000000    -0.24671    
O82      O      0.173440000000     0.558320000000     0.630880000000    -0.247546   
O83      O      0.226720000000     0.625920000000     0.554080000000    -0.249751   
O84      O      0.194390000000     0.623880000000     0.724620000000    -0.252559   
O85      O      0.171190000000     0.616810000000     0.649380000000    -0.250742   
O86      O      0.250810000000     0.662450000000     0.610790000000    -0.247242   
O87      O      0.233260000000     0.588940000000     0.721870000000    -0.249272   
O88      O      0.217650000000     0.568010000000     0.600700000000    -0.248021   
O89      O      0.137490000000     0.862040000000     0.399290000000    -0.243801   
O90      O      0.106290000000     0.925500000000     0.492380000000    -0.247478   
O91      O      0.132480000000     0.859840000000     0.507770000000    -0.245312   
O92      O      0.059570000000     0.836770000000     0.428430000000    -0.252489   
O93      O      0.065150000000     0.879870000000     0.401020000000    -0.248878   
O94      O      0.093360000000     0.860900000000     0.540560000000    -0.24919    
O95      O      0.138650000000     0.902200000000     0.366040000000    -0.246678   
O96      O      0.151120000000     0.935600000000     0.465460000000    -0.250116   
O97      O      0.819420000000     0.213870000000     0.355980000000    -0.244763   
O98      O      0.850200000000     0.301480000000     0.312600000000    -0.248038   
O99      O      0.852230000000     0.211890000000     0.272030000000    -0.242417   
O100     O      0.908800000000     0.265080000000     0.365760000000    -0.251169   
O101     O      0.913820000000     0.307340000000     0.334540000000    -0.246726   
O102     O      0.889290000000     0.253410000000     0.238200000000    -0.249588   
O103     O      0.844690000000     0.251080000000     0.410920000000    -0.248938   
O104     O      0.835500000000     0.269850000000     0.246790000000    -0.252761   
O105     O      0.710250000000     0.356010000000     0.068500000000    -0.249702   
O106     O      0.795560000000     0.383210000000     0.182160000000    -0.248543   
O107     O      0.725390000000     0.400860000000     0.159840000000    -0.247953   
O108     O      0.783040000000     0.425220000000     0.046620000000    -0.251648   
O109     O      0.795900000000     0.441120000000     0.127160000000    -0.248364   
O110     O      0.723570000000     0.360060000000     0.191530000000    -0.250158   
O111     O      0.749110000000     0.356030000000     0.031870000000    -0.240898   
O112     O      0.781030000000     0.350410000000     0.118080000000    -0.247612   
O113     O      0.852120000000     0.132090000000     0.054590000000    -0.248775   
O114     O      0.932400000000     0.150220000000     0.976900000000    -0.248681   
O115     O      0.824530000000     0.101340000000     0.928850000000    -0.247716   
O116     O      0.859750000000     0.070270000000     0.957790000000    -0.24889    
O117     O      0.873510000000     0.086780000000     0.038020000000    -0.248145   
O118     O      0.857930000000     0.146880000000     0.902660000000    -0.247859   
O119     O      0.891140000000     0.172890000000     0.023350000000    -0.248073   
O120     O      0.912170000000     0.139370000000     0.898540000000    -0.248599   
O121     O      0.586640000000     0.265870000000     0.738610000000    -0.248634   
O122     O      0.573300000000     0.210780000000     0.865280000000    -0.248818   
O123     O      0.659170000000     0.275180000000     0.825840000000    -0.247599   
O124     O      0.635300000000     0.209660000000     0.805080000000    -0.24772    
O125     O      0.612440000000     0.202300000000     0.729280000000    -0.247682   
O126     O      0.620910000000     0.276830000000     0.861260000000    -0.248477   
O127     O      0.625650000000     0.265400000000     0.703950000000    -0.248691   
O128     O      0.552190000000     0.201260000000     0.787590000000    -0.248939   
O129     O      0.767360000000     0.133850000000     0.694090000000    -0.246715   
O130     O      0.673440000000     0.058320000000     0.630880000000    -0.247567   
O131     O      0.726720000000     0.125920000000     0.554080000000    -0.249758   
O132     O      0.694390000000     0.123880000000     0.724620000000    -0.252566   
O133     O      0.671190000000     0.116810000000     0.649380000000    -0.250753   
O134     O      0.750810000000     0.162450000000     0.610790000000    -0.247244   
O135     O      0.733260000000     0.088940000000     0.721870000000    -0.249282   
O136     O      0.717650000000     0.068010000000     0.600700000000    -0.24803    
O137     O      0.637500000000     0.362040000000     0.399290000000    -0.243813   
O138     O      0.606290000000     0.425500000000     0.492380000000    -0.247487   
O139     O      0.632480000000     0.359840000000     0.507770000000    -0.245342   
O140     O      0.559570000000     0.336770000000     0.428430000000    -0.252512   
O141     O      0.565150000000     0.379870000000     0.401020000000    -0.248888   
O142     O      0.593360000000     0.360900000000     0.540560000000    -0.24921    
O143     O      0.638650000000     0.402200000000     0.366040000000    -0.246703   
O144     O      0.651120000000     0.435600000000     0.465460000000    -0.250133   
O145     O      0.819420000000     0.713870000000     0.355980000000    -0.244755   
O146     O      0.850200000000     0.801480000000     0.312600000000    -0.248099   
O147     O      0.852230000000     0.711890000000     0.272030000000    -0.242416   
O148     O      0.908800000000     0.765080000000     0.365760000000    -0.251171   
O149     O      0.913820000000     0.807340000000     0.334540000000    -0.246719   
O150     O      0.889290000000     0.753410000000     0.238200000000    -0.249591   
O151     O      0.844690000000     0.751080000000     0.410920000000    -0.248932   
O152     O      0.835490000000     0.769850000000     0.246800000000    -0.252816   
O153     O      0.710240000000     0.856010000000     0.068490000000    -0.249647   
O154     O      0.795560000000     0.883210000000     0.182160000000    -0.248617   
O155     O      0.725390000000     0.900860000000     0.159840000000    -0.24794    
O156     O      0.783040000000     0.925220000000     0.046620000000    -0.251633   
O157     O      0.795900000000     0.941120000000     0.127160000000    -0.248336   
O158     O      0.723570000000     0.860060000000     0.191530000000    -0.250162   
O159     O      0.749110000000     0.856030000000     0.031860000000    -0.240873   
O160     O      0.781030000000     0.850410000000     0.118080000000    -0.247696   
O161     O      0.852120000000     0.632090000000     0.054590000000    -0.248767   
O162     O      0.932400000000     0.650220000000     0.976900000000    -0.248682   
O163     O      0.824530000000     0.601340000000     0.928850000000    -0.247699   
O164     O      0.859740000000     0.570270000000     0.957790000000    -0.248842   
O165     O      0.873510000000     0.586780000000     0.038020000000    -0.248131   
O166     O      0.857930000000     0.646880000000     0.902660000000    -0.247858   
O167     O      0.891140000000     0.672890000000     0.023350000000    -0.24807    
O168     O      0.912170000000     0.639370000000     0.898540000000    -0.248599   
O169     O      0.586640000000     0.765870000000     0.738610000000    -0.248705   
O170     O      0.573290000000     0.710780000000     0.865280000000    -0.2489     
O171     O      0.659170000000     0.775180000000     0.825840000000    -0.247597   
O172     O      0.635300000000     0.709660000000     0.805080000000    -0.247727   
O173     O      0.612440000000     0.702300000000     0.729280000000    -0.247686   
O174     O      0.620910000000     0.776830000000     0.861260000000    -0.248466   
O175     O      0.625640000000     0.765410000000     0.703950000000    -0.248952   
O176     O      0.552190000000     0.701260000000     0.787590000000    -0.248952   
O177     O      0.767360000000     0.633850000000     0.694090000000    -0.246713   
O178     O      0.673440000000     0.558320000000     0.630880000000    -0.247554   
O179     O      0.726720000000     0.625920000000     0.554080000000    -0.249755   
O180     O      0.694390000000     0.623880000000     0.724620000000    -0.252563   
O181     O      0.671190000000     0.616810000000     0.649380000000    -0.250749   
O182     O      0.750810000000     0.662450000000     0.610790000000    -0.247245   
O183     O      0.733260000000     0.588940000000     0.721870000000    -0.249275   
O184     O      0.717650000000     0.568010000000     0.600700000000    -0.248023   
O185     O      0.637490000000     0.862040000000     0.399290000000    -0.243809   
O186     O      0.606290000000     0.925500000000     0.492380000000    -0.247496   
O187     O      0.632480000000     0.859840000000     0.507770000000    -0.245316   
O188     O      0.559570000000     0.836770000000     0.428430000000    -0.252497   
O189     O      0.565150000000     0.879870000000     0.401020000000    -0.248874   
O190     O      0.593360000000     0.860900000000     0.540560000000    -0.249209   
O191     O      0.638650000000     0.902200000000     0.366040000000    -0.246686   
O192     O      0.651120000000     0.935600000000     0.465460000000    -0.250119   


