data_structure

_audit_creation_method RASPA-1.0
_audit_creation_date 2023-5-22
_audit_author_name 'Poobodin Mano'

_cell_length_a    48.1933
_cell_length_b    47.0508
_cell_length_c    26.7888
_cell_angle_alpha 90.015
_cell_angle_beta  89.986
_cell_angle_gamma 120.476
_cell_volume      52352.1

_symmetry_cell_setting          triclinic
_symmetry_space_group_name_Hall 'P 1'
_symmetry_space_group_name_H-M  'P 1'
_symmetry_Int_Tables_number     1

_symmetry_equiv_pos_as_xyz 'x,y,z'

loop_
_atom_site_label
_atom_site_type_symbol
_atom_site_fract_x
_atom_site_fract_y
_atom_site_fract_z
_atom_site_charge
C1       C      0.465860000000     0.624000000000     0.168560000000     0.342648   
C2       C      0.365400000000     0.546680000000     0.076740000000     0.33879    
C3       C      0.447380000000     0.523840000000     0.106470000000     0.340093   
C4       C      0.383370000000     0.533630000000     0.240810000000     0.341011   
C5       C      0.527560000000     0.391810000000     0.996730000000     0.344913   
C6       C      0.617920000000     0.468820000000     0.095240000000     0.341124   
C7       C      0.608590000000     0.495300000000     0.932580000000     0.34319    
C8       C      0.534240000000     0.488830000000     0.053990000000     0.339609   
C9       C      0.995390000000     0.855690000000     0.256160000000     0.339854   
C10      C      0.902610000000     0.857020000000     0.182240000000     0.342685   
C11      C      0.970120000000     0.834900000000     0.090680000000     0.338988   
C12      C      0.900970000000     0.757920000000     0.215500000000     0.341189   
C13      C      0.805980000000     0.533270000000     0.309170000000     0.341403   
C14      C      0.716940000000     0.532410000000     0.223040000000     0.340339   
C15      C      0.738090000000     0.559410000000     0.389490000000     0.342708   
C16      C      0.809050000000     0.633000000000     0.266100000000     0.340639   
C17      C      0.305020000000     0.783420000000     0.442730000000     0.340775   
C18      C      0.211090000000     0.687380000000     0.360860000000     0.342937   
C19      C      0.213420000000     0.785710000000     0.393150000000     0.34007    
C20      C      0.283600000000     0.779810000000     0.273750000000     0.337578   
C21      C      0.096550000000     0.905460000000     0.381630000000     0.339131   
C22      C      0.189190000000     0.972540000000     0.477490000000     0.343652   
C23      C      0.093240000000     0.872740000000     0.540190000000     0.344564   
C24      C      0.168250000000     0.867740000000     0.435440000000     0.338104   
C25      C      0.620030000000     0.168450000000     0.577210000000     0.342295   
C26      C      0.532260000000     0.150040000000     0.467320000000     0.34386    
C27      C      0.617390000000     0.137300000000     0.408790000000     0.341313   
C28      C      0.540230000000     0.062420000000     0.525160000000     0.339607   
C29      C      0.491710000000     0.856790000000     0.689300000000     0.341939   
C30      C      0.403890000000     0.833660000000     0.574160000000     0.342021   
C31      C      0.408850000000     0.877210000000     0.733850000000     0.341766   
C32      C      0.485570000000     0.942430000000     0.614840000000     0.338161   
C33      C      0.854260000000     0.027790000000     0.700050000000     0.345309   
C34      C      0.943820000000     0.119520000000     0.785540000000     0.339405   
C35      C      0.925800000000     0.129960000000     0.619320000000     0.343639   
C36      C      0.851690000000     0.124200000000     0.732650000000     0.339304   
C37      C      0.711320000000     0.208340000000     0.721170000000     0.338766   
C38      C      0.803720000000     0.295000000000     0.821630000000     0.340221   
C39      C      0.720760000000     0.203860000000     0.890630000000     0.339016   
C40      C      0.796180000000     0.196450000000     0.778370000000     0.340163   
C41      C      0.195430000000     0.506090000000     0.816480000000     0.341953   
C42      C      0.273560000000     0.518080000000     0.941010000000     0.342432   
C43      C      0.195150000000     0.412580000000     0.881510000000     0.338531   
C44      C      0.276420000000     0.484310000000     0.775910000000     0.342803   
C45      C      0.042330000000     0.170100000000     0.916040000000     0.342207   
C46      C      0.150210000000     0.210330000000     0.983360000000     0.34424    
C47      C      0.119430000000     0.283120000000     0.920110000000     0.339676   
C48      C      0.079030000000     0.222210000000     0.073720000000     0.341241   
C49      C      0.980270000000     0.833410000000     0.626580000000     0.342152   
C50      C      0.916430000000     0.852200000000     0.749060000000     0.341411   
C51      C      0.879790000000     0.824840000000     0.588630000000     0.340925   
C52      C      0.885710000000     0.745700000000     0.687840000000     0.339272   
C53      C      0.714760000000     0.537210000000     0.826720000000     0.342207   
C54      C      0.776430000000     0.515580000000     0.701690000000     0.341742   
C55      C      0.810430000000     0.622790000000     0.761820000000     0.338804   
C56      C      0.811430000000     0.541240000000     0.863870000000     0.340888   
C57      C      0.181340000000     0.065530000000     0.171630000000     0.342248   
C58      C      0.169500000000     0.143970000000     0.274020000000     0.340573   
C59      C      0.273320000000     0.166100000000     0.224210000000     0.339422   
C60      C      0.198370000000     0.163820000000     0.108460000000     0.339231   
C61      C      0.503320000000     0.239700000000     0.192160000000     0.340728   
C62      C      0.484230000000     0.306450000000     0.310660000000     0.341158   
C63      C      0.399750000000     0.207640000000     0.254480000000     0.338167   
C64      C      0.482860000000     0.206520000000     0.351970000000     0.341453   
C65      C      0.835510000000     0.479060000000     0.569420000000     0.340576   
C66      C      0.851140000000     0.392260000000     0.498990000000     0.342753   
C67      C      0.860760000000     0.478800000000     0.401220000000     0.341838   
C68      C      0.936950000000     0.496700000000     0.530850000000     0.341129   
C69      C      0.139920000000     0.648360000000     0.630100000000     0.344233   
C70      C      0.165850000000     0.575550000000     0.545660000000     0.341208   
C71      C      0.135460000000     0.554630000000     0.710840000000     0.343981   
C72      C      0.058800000000     0.540690000000     0.590960000000     0.339688   
C73      C      0.035740000000     0.184190000000     0.523140000000     0.342015   
C74      C      0.105980000000     0.169620000000     0.413250000000     0.340283   
C75      C      0.127210000000     0.276970000000     0.450420000000     0.338342   
C76      C      0.144120000000     0.214200000000     0.566280000000     0.344796   
C77      C      0.273000000000     0.489340000000     0.328540000000     0.341777   
C78      C      0.196050000000     0.510090000000     0.414030000000     0.339123   
C79      C      0.183210000000     0.475220000000     0.249760000000     0.339551   
C80      C      0.170740000000     0.402080000000     0.384120000000     0.340057   
C81      C      0.370390000000     0.836260000000     0.140700000000     0.343904   
C82      C      0.467910000000     0.851320000000     0.068760000000     0.339244   
C83      C      0.456250000000     0.942490000000     0.109420000000     0.339608   
C84      C      0.469820000000     0.882340000000     0.233790000000     0.345478   
C85      C      0.627930000000     0.158930000000     0.015640000000     0.342834   
C86      C      0.540380000000     0.173380000000     0.076360000000     0.339701   
C87      C      0.547010000000     0.145550000000     0.912620000000     0.341705   
C88      C      0.527230000000     0.068640000000     0.048360000000     0.341217   
C89      C      0.862570000000     0.894540000000     0.882500000000     0.340792   
C90      C      0.859050000000     0.987770000000     0.959170000000     0.34296    
C91      C      0.767970000000     0.887780000000     0.940100000000     0.340924   
C92      C      0.853570000000     0.900930000000     0.052450000000     0.337938   
C93      C      0.544850000000     0.822740000000     0.959200000000     0.340112   
C94      C      0.536910000000     0.727000000000     0.882640000000     0.343895   
C95      C      0.561440000000     0.819440000000     0.789810000000     0.341248   
C96      C      0.638480000000     0.820970000000     0.906290000000     0.342119   
C97      C      0.180310000000     0.636490000000     0.052910000000     0.340729   
C98      C      0.147270000000     0.523890000000     0.117090000000     0.343821   
C99      C      0.158300000000     0.606880000000     0.216350000000     0.337723   
C100     C      0.074610000000     0.557530000000     0.084180000000     0.339469   
C101     C      0.867870000000     0.498500000000     0.984090000000     0.344768   
C102     C      0.843910000000     0.399800000000     0.076110000000     0.339877   
C103     C      0.872140000000     0.409560000000     0.910610000000     0.343014   
C104     C      0.950140000000     0.478900000000     0.031040000000     0.338182   
C105     C      0.206080000000     0.159830000000     0.642790000000     0.341632   
C106     C      0.202800000000     0.079010000000     0.754190000000     0.340008   
C107     C      0.227880000000     0.074850000000     0.593180000000     0.342101   
C108     C      0.301910000000     0.166760000000     0.689190000000     0.340899   
C109     C      0.528800000000     0.304380000000     0.698150000000     0.341477   
C110     C      0.512300000000     0.213930000000     0.807600000000     0.342475   
C111     C      0.497550000000     0.299910000000     0.863620000000     0.340491   
C112     C      0.425270000000     0.222900000000     0.751560000000     0.338285   
C113     C      0.213210000000     0.731950000000     0.915200000000     0.339605   
C114     C      0.294900000000     0.823220000000     0.817990000000     0.342117   
C115     C      0.193700000000     0.743950000000     0.753850000000     0.34174    
C116     C      0.201560000000     0.822790000000     0.871560000000     0.338879   
C117     C      0.060260000000     0.885830000000     0.965200000000     0.342853   
C118     C      0.144640000000     0.995080000000     0.905450000000     0.341515   
C119     C      0.139480000000     0.959330000000     0.068000000000     0.340686   
C120     C      0.162770000000     0.908110000000     0.926350000000     0.340496   
C121     C      0.626320000000     0.493250000000     0.472150000000     0.342602   
C122     C      0.550160000000     0.399110000000     0.568210000000     0.339451   
C123     C      0.534820000000     0.489680000000     0.540260000000     0.340436   
C124     C      0.526390000000     0.416440000000     0.408810000000     0.341935   
C125     C      0.473740000000     0.645730000000     0.590810000000     0.338226   
C126     C      0.390540000000     0.550160000000     0.693240000000     0.339376   
C127     C      0.476970000000     0.551130000000     0.626380000000     0.33999    
C128     C      0.481990000000     0.632910000000     0.754400000000     0.338647   
C129     C      0.895300000000     0.056210000000     0.254000000000     0.340876   
C130     C      0.977640000000     0.159340000000     0.172820000000     0.341543   
C131     C      0.895090000000     0.078840000000     0.087850000000     0.337982   
C132     C      0.874820000000     0.140390000000     0.215370000000     0.338293   
C133     C      0.808230000000     0.303700000000     0.214040000000     0.338658   
C134     C      0.728330000000     0.204970000000     0.314290000000     0.3402     
C135     C      0.828100000000     0.220990000000     0.261260000000     0.338196   
C136     C      0.813450000000     0.293440000000     0.379270000000     0.339057   
C137     C      0.815700000000     0.861380000000     0.474770000000     0.34484    
C138     C      0.829330000000     0.960850000000     0.390060000000     0.342211   
C139     C      0.728150000000     0.874460000000     0.439510000000     0.337729   
C140     C      0.809680000000     0.940330000000     0.560810000000     0.337548   
C141     C      0.515270000000     0.822940000000     0.336150000000     0.340928   
C142     C      0.508100000000     0.743680000000     0.459880000000     0.342445   
C143     C      0.517410000000     0.727640000000     0.289690000000     0.340998   
C144     C      0.604010000000     0.818250000000     0.377970000000     0.340225   
C145     C      0.682420000000     0.829190000000     0.393800000000    -0.0143618  
C146     C      0.673290000000     0.864680000000     0.454380000000    -0.0146221  
C147     C      0.659380000000     0.831400000000     0.356800000000    -0.0136745  
C148     C      0.650520000000     0.866860000000     0.416870000000    -0.0134208  
C149     C      0.837360000000     0.978830000000     0.301900000000    -0.0144802  
C150     C      0.866120000000     0.019890000000     0.371510000000    -0.0143753  
C151     C      0.868170000000     0.996180000000     0.270760000000    -0.0133308  
C152     C      0.896580000000     0.036630000000     0.339400000000    -0.0136788  
C153     C      0.843070000000     0.194100000000     0.195640000000    -0.0144148  
C154     C      0.865930000000     0.201690000000     0.282260000000    -0.0141985  
C155     C      0.835970000000     0.158510000000     0.195290000000    -0.0138891  
C156     C      0.858890000000     0.166090000000     0.281690000000    -0.0141562  
C157     C      0.516550000000     0.730560000000     0.545960000000    -0.0124218  
C158     C      0.461810000000     0.700790000000     0.508170000000    -0.0134013  
C159     C      0.515940000000     0.698100000000     0.554000000000    -0.0153596  
C160     C      0.459730000000     0.667550000000     0.516940000000    -0.0149714  
C161     C      0.505150000000     0.519930000000     0.639080000000    -0.0138759  
C162     C      0.475500000000     0.514200000000     0.559240000000    -0.0139752  
C163     C      0.534150000000     0.524270000000     0.609330000000    -0.0143203  
C164     C      0.504460000000     0.518710000000     0.529220000000    -0.0141526  
C165     C      0.167930000000     0.847560000000     0.853690000000    -0.0143931  
C166     C      0.192730000000     0.853330000000     0.938830000000    -0.0144356  
C167     C      0.177140000000     0.883850000000     0.855830000000    -0.0137352  
C168     C      0.201950000000     0.889550000000     0.940050000000    -0.0135589  
C169     C      0.570200000000     0.360240000000     0.670060000000    -0.0131456  
C170     C      0.535330000000     0.317770000000     0.607930000000    -0.0133069  
C171     C      0.558480000000     0.383280000000     0.652340000000    -0.0147002  
C172     C      0.522770000000     0.339810000000     0.588810000000    -0.0145862  
C173     C      0.134740000000     0.020660000000     0.832020000000    -0.0129758  
C174     C      0.182660000000     0.053890000000     0.885780000000    -0.013054   
C175     C      0.156130000000     0.027990000000     0.786110000000    -0.0146465  
C176     C      0.205150000000     0.062440000000     0.840830000000    -0.014884   
C177     C      0.382790000000     0.184830000000     0.693200000000    -0.0144532  
C178     C      0.368320000000     0.203330000000     0.772420000000    -0.014369   
C179     C      0.359050000000     0.191110000000     0.664340000000    -0.0134549  
C180     C      0.344570000000     0.209370000000     0.743020000000    -0.0135762  
C181     C      0.831380000000     0.385660000000     0.165410000000    -0.0130488  
C182     C      0.800150000000     0.343700000000     0.100120000000    -0.0134887  
C183     C      0.840300000000     0.362300000000     0.190590000000    -0.0147116  
C184     C      0.806880000000     0.318690000000     0.125930000000    -0.0148918  
C185     C      0.198430000000     0.712920000000     0.002130000000    -0.0148111  
C186     C      0.197210000000     0.674340000000     0.934700000000    -0.014695   
C187     C      0.210580000000     0.696910000000     0.039040000000    -0.0129983  
C188     C      0.209260000000     0.658930000000     0.972990000000    -0.0133284  
C189     C      0.017450000000     0.537380000000     0.104960000000    -0.013771   
C190     C      0.034310000000     0.539080000000     0.016000000000    -0.0139356  
C191     C      0.990880000000     0.501340000000     0.098540000000    -0.014435   
C192     C      0.007730000000     0.503050000000     0.009060000000    -0.0142519  
C193     C      0.528870000000     0.665570000000     0.808300000000    -0.0151408  
C194     C      0.475780000000     0.665540000000     0.820160000000    -0.014995   
C195     C      0.536270000000     0.675280000000     0.863330000000    -0.011853   
C196     C      0.485210000000     0.674630000000     0.874800000000    -0.0117477  
C197     C      0.903850000000     0.045560000000     0.964400000000    -0.0110069  
C198     C      0.847990000000     0.032920000000     0.974010000000    -0.0117243  
C199     C      0.912100000000     0.057290000000     0.018530000000    -0.0161633  
C200     C      0.852930000000     0.043270000000     0.028830000000    -0.0149471  
C201     C      0.713250000000     0.869410000000     0.972190000000    -0.0141127  
C202     C      0.723170000000     0.869250000000     0.879840000000    -0.0140029  
C203     C      0.682480000000     0.835750000000     0.967150000000    -0.0139711  
C204     C      0.692530000000     0.835510000000     0.875310000000    -0.0138575  
C205     C      0.564430000000     0.177460000000     0.833890000000    -0.0120591  
C206     C      0.507420000000     0.135110000000     0.846190000000    -0.0119208  
C207     C      0.556480000000     0.205090000000     0.831610000000    -0.0150719  
C208     C      0.496960000000     0.160770000000     0.846190000000    -0.0146775  
C209     C      0.526320000000     0.870010000000     0.283440000000    -0.0146615  
C210     C      0.471410000000     0.834740000000     0.327110000000    -0.0153177  
C211     C      0.519160000000     0.898070000000     0.282010000000    -0.0116362  
C212     C      0.466080000000     0.864050000000     0.321470000000    -0.0119413  
C213     C      0.518350000000     0.817500000000     0.040900000000    -0.013854   
C214     C      0.529860000000     0.864090000000     0.982800000000    -0.0140131  
C215     C      0.483710000000     0.810150000000     0.047330000000    -0.0144069  
C216     C      0.495080000000     0.856250000000     0.988080000000    -0.014241   
C217     C      0.498420000000     0.009230000000     0.027510000000    -0.0143393  
C218     C      0.510450000000     0.028170000000     0.117290000000    -0.014372   
C219     C      0.464470000000     0.982590000000     0.042890000000    -0.013415   
C220     C      0.476480000000     0.000940000000     0.131790000000    -0.0136318  
C221     C      0.127340000000     0.466850000000     0.145200000000    -0.011443   
C222     C      0.183160000000     0.500780000000     0.116410000000    -0.0118493  
C223     C      0.137570000000     0.467470000000     0.199380000000    -0.0147881  
C224     C      0.196710000000     0.503230000000     0.168890000000    -0.01497    
C225     C      0.199080000000     0.229510000000     0.592840000000    -0.0119713  
C226     C      0.152780000000     0.195780000000     0.648360000000    -0.0120735  
C227     C      0.206440000000     0.201670000000     0.587510000000    -0.0147376  
C228     C      0.158910000000     0.166910000000     0.645980000000    -0.0151475  
C229     C      0.161430000000     0.336970000000     0.464200000000    -0.0141505  
C230     C      0.139210000000     0.314570000000     0.378630000000    -0.0145134  
C231     C      0.153510000000     0.364250000000     0.456560000000    -0.0138387  
C232     C      0.132070000000     0.342510000000     0.371120000000    -0.0137789  
C233     C      0.197730000000     0.721470000000     0.673550000000    -0.0147017  
C234     C      0.142990000000     0.700940000000     0.717470000000    -0.0147793  
C235     C      0.179100000000     0.708100000000     0.624810000000    -0.0120126  
C236     C      0.126980000000     0.688510000000     0.666590000000    -0.0118368  
C237     C      0.180280000000     0.575330000000     0.456920000000    -0.0126498  
C238     C      0.208610000000     0.563220000000     0.523600000000    -0.0129989  
C239     C      0.169580000000     0.542130000000     0.431820000000    -0.0154143  
C240     C      0.198780000000     0.529770000000     0.500150000000    -0.0148648  
C241     C      0.864420000000     0.348590000000     0.483700000000    -0.0121548  
C242     C      0.807970000000     0.333710000000     0.496520000000    -0.0119625  
C243     C      0.857600000000     0.335280000000     0.430220000000    -0.0149966  
C244     C      0.798700000000     0.320480000000     0.443390000000    -0.0148579  
C245     C      0.994670000000     0.523610000000     0.508320000000    -0.0138909  
C246     C      0.977870000000     0.522580000000     0.597600000000    -0.0140162  
C247     C      0.017740000000     0.512130000000     0.525110000000    -0.0139182  
C248     C      0.001050000000     0.511160000000     0.614090000000    -0.0137541  
C249     C      0.476240000000     0.374250000000     0.367980000000    -0.0120161  
C250     C      0.527810000000     0.398510000000     0.322330000000    -0.0120214  
C251     C      0.472500000000     0.340000000000     0.367360000000    -0.0147833  
C252     C      0.525690000000     0.364990000000     0.318450000000    -0.0152433  
C253     C      0.500590000000     0.190250000000     0.095300000000    -0.0151037  
C254     C      0.549170000000     0.207440000000     0.151410000000    -0.014769   
C255     C      0.504090000000     0.224090000000     0.104050000000    -0.0129124  
C256     C      0.551740000000     0.240980000000     0.158350000000    -0.0131408  
C257     C      0.123170000000     0.975820000000     0.145400000000    -0.0118693  
C258     C      0.178750000000     0.987190000000     0.136030000000    -0.012226   
C259     C      0.134440000000     0.012650000000     0.147520000000    -0.0150931  
C260     C      0.192550000000     0.024450000000     0.135970000000    -0.0145511  
C261     C      0.153980000000     0.141260000000     0.362590000000    -0.0148052  
C262     C      0.137070000000     0.168920000000     0.297500000000    -0.0145934  
C263     C      0.121500000000     0.128740000000     0.388640000000    -0.0131939  
C264     C      0.104740000000     0.155060000000     0.324190000000    -0.0131833  
C265     C      0.356560000000     0.197700000000     0.194720000000    -0.0141092  
C266     C      0.343000000000     0.167520000000     0.276600000000    -0.0141989  
C267     C      0.330170000000     0.206070000000     0.203360000000    -0.0139431  
C268     C      0.316050000000     0.175320000000     0.284780000000    -0.0141469  
C269     C      0.808640000000     0.510700000000     0.939960000000    -0.0149949  
C270     C      0.861480000000     0.544180000000     0.891570000000    -0.0147787  
C271     C      0.828550000000     0.517500000000     0.987570000000    -0.0120781  
C272     C      0.879500000000     0.549870000000     0.940940000000    -0.0122391  
C273     C      0.809570000000     0.471450000000     0.651700000000    -0.0146978  
C274     C      0.816660000000     0.517210000000     0.593100000000    -0.0151215  
C275     C      0.777110000000     0.466930000000     0.667820000000    -0.0131552  
C276     C      0.784130000000     0.511830000000     0.610890000000    -0.0129395  
C277     C      0.808410000000     0.811110000000     0.516020000000    -0.0118654  
C278     C      0.857500000000     0.845900000000     0.466500000000    -0.0122602  
C279     C      0.827790000000     0.818420000000     0.564210000000    -0.014723   
C280     C      0.878920000000     0.853840000000     0.512720000000    -0.0150896  
C281     C      0.873740000000     0.851360000000     0.854120000000    -0.0149672  
C282     C      0.886880000000     0.900370000000     0.798950000000    -0.0144214  
C283     C      0.905680000000     0.854290000000     0.838970000000    -0.0129007  
C284     C      0.918350000000     0.902040000000     0.783820000000    -0.0136703  
C285     C      0.841440000000     0.688510000000     0.672580000000    -0.0140111  
C286     C      0.882640000000     0.700290000000     0.739050000000    -0.0139355  
C287     C      0.814450000000     0.668240000000     0.709830000000    -0.01391    
C288     C      0.855680000000     0.679650000000     0.776270000000    -0.014161   
C289     C      0.067730000000     0.198260000000     0.158610000000    -0.0114623  
C290     C      0.052080000000     0.238750000000     0.135930000000    -0.0114269  
C291     C      0.032690000000     0.170450000000     0.163700000000    -0.0148513  
C292     C      0.016170000000     0.213200000000     0.138090000000    -0.0146285  
C293     C      0.169040000000     0.155450000000     0.030110000000    -0.0151361  
C294     C      0.202420000000     0.213080000000     0.070180000000    -0.0149163  
C295     C      0.172050000000     0.172780000000     0.980450000000    -0.0116821  
C296     C      0.203960000000     0.227790000000     0.018650000000    -0.0117314  
C297     C      0.319870000000     0.475400000000     0.745650000000    -0.0120408  
C298     C      0.300830000000     0.505210000000     0.692830000000    -0.0123931  
C299     C      0.353540000000     0.505720000000     0.749340000000    -0.0149795  
C300     C      0.334040000000     0.536550000000     0.693890000000    -0.0151866  
C301     C      0.163840000000     0.562550000000     0.791480000000    -0.0128225  
C302     C      0.124710000000     0.506190000000     0.761800000000    -0.0124544  
C303     C      0.190660000000     0.554170000000     0.794060000000    -0.0146759  
C304     C      0.150420000000     0.496370000000     0.762060000000    -0.0143624  
C305     C      0.185700000000     0.355920000000     0.876110000000    -0.0146474  
C306     C      0.149850000000     0.368470000000     0.929510000000    -0.0144487  
C307     C      0.155930000000     0.324290000000     0.858290000000    -0.0132243  
C308     C      0.120600000000     0.336230000000     0.911630000000    -0.0137127  
C309     C      0.683930000000     0.205450000000     0.012880000000    -0.0117878  
C310     C      0.672510000000     0.148980000000     0.996920000000    -0.0118004  
C311     C      0.694580000000     0.216000000000     0.959010000000    -0.0149617  
C312     C      0.683270000000     0.156960000000     0.942440000000    -0.0150298  
C313     C      0.841890000000     0.386800000000     0.831750000000    -0.0124385  
C314     C      0.880190000000     0.370040000000     0.860710000000    -0.011937   
C315     C      0.813710000000     0.351200000000     0.833860000000    -0.01483    
C316     C      0.853480000000     0.334010000000     0.865040000000    -0.0147891  
C317     C      0.947360000000     0.126640000000     0.537000000000    -0.0123169  
C318     C      0.961920000000     0.180980000000     0.572520000000    -0.0120247  
C319     C      0.982520000000     0.135170000000     0.537650000000    -0.0149744  
C320     C      0.997570000000     0.191470000000     0.574670000000    -0.0149431  
C321     C      0.850050000000     0.973910000000     0.684360000000    -0.0119597  
C322     C      0.801800000000     0.979100000000     0.678130000000    -0.0114489  
C323     C      0.848860000000     0.966100000000     0.628650000000    -0.0152542  
C324     C      0.798580000000     0.972000000000     0.622100000000    -0.015387   
C325     C      0.001760000000     0.144340000000     0.802320000000    -0.0146109  
C326     C      0.962630000000     0.136260000000     0.872200000000    -0.0150884  
C327     C      0.021050000000     0.136560000000     0.839310000000    -0.0130258  
C328     C      0.983690000000     0.130030000000     0.908310000000    -0.0133617  
C329     C      0.827210000000     0.183880000000     0.717680000000    -0.014124   
C330     C      0.824920000000     0.168530000000     0.808240000000    -0.0141188  
C331     C      0.820700000000     0.149680000000     0.702600000000    -0.0138678  
C332     C      0.818700000000     0.134470000000     0.792870000000    -0.0138832  
C333     C      0.348780000000     0.829670000000     0.817220000000    -0.014884   
C334     C      0.335530000000     0.867040000000     0.764920000000    -0.0146313  
C335     C      0.384050000000     0.857460000000     0.817150000000    -0.0125969  
C336     C      0.371110000000     0.893530000000     0.767510000000    -0.012373   
C337     C      0.568240000000     0.864800000000     0.734890000000    -0.0125085  
C338     C      0.530940000000     0.806860000000     0.710500000000    -0.0124162  
C339     C      0.540710000000     0.872020000000     0.737570000000    -0.0145379  
C340     C      0.502150000000     0.812230000000     0.711130000000    -0.0150827  
C341     C      0.693270000000     0.158210000000     0.368170000000    -0.0147211  
C342     C      0.672030000000     0.191080000000     0.321710000000    -0.0149238  
C343     C      0.658910000000     0.128780000000     0.368560000000    -0.0124706  
C344     C      0.638260000000     0.160560000000     0.324750000000    -0.0126414  
C345     C      0.485350000000     0.157150000000     0.374180000000    -0.0146529  
C346     C      0.516810000000     0.210780000000     0.423410000000    -0.0147208  
C347     C      0.482680000000     0.138210000000     0.422010000000    -0.0125328  
C348     C      0.513500000000     0.190330000000     0.469800000000    -0.0128204  
C349     C      0.670460000000     0.216370000000     0.609680000000    -0.0137799  
C350     C      0.630650000000     0.174010000000     0.668110000000    -0.0130415  
C351     C      0.697730000000     0.213180000000     0.633580000000    -0.0148068  
C352     C      0.656760000000     0.168800000000     0.690800000000    -0.0149338  
C353     C      0.499450000000     0.000710000000     0.618550000000    -0.014094   
C354     C      0.529510000000     0.983530000000     0.560870000000    -0.01425    
C355     C      0.495550000000     0.020070000000     0.576140000000    -0.0137338  
C356     C      0.526680000000     0.004110000000     0.518910000000    -0.0140806  
C357     C      0.013160000000     0.822290000000     0.568290000000    -0.0145385  
C358     C      0.037780000000     0.875600000000     0.618810000000    -0.0150868  
C359     C      0.045090000000     0.822940000000     0.572810000000    -0.0125984  
C360     C      0.069340000000     0.875210000000     0.620900000000    -0.0124969  
C361     C      0.231120000000     0.026050000000     0.570700000000    -0.01486    
C362     C      0.203160000000     0.047880000000     0.513670000000    -0.0147152  
C363     C      0.238040000000     0.011790000000     0.524280000000    -0.0119895  
C364     C      0.211030000000     0.032600000000     0.469460000000    -0.0124222  
C365     C      0.317720000000     0.831150000000     0.158190000000    -0.0113975  
C366     C      0.321740000000     0.781250000000     0.150560000000    -0.0113438  
C367     C      0.309490000000     0.825150000000     0.213710000000    -0.0153983  
C368     C      0.313410000000     0.772500000000     0.205670000000    -0.0154521  
C369     C      0.199950000000     0.627720000000     0.281240000000    -0.0161891  
C370     C      0.150860000000     0.635830000000     0.286500000000    -0.0153494  
C371     C      0.203620000000     0.633050000000     0.337790000000    -0.0104694  
C372     C      0.156730000000     0.640490000000     0.342790000000    -0.0115404  
C373     C      0.388830000000     0.823880000000     0.484740000000    -0.0133539  
C374     C      0.353450000000     0.783020000000     0.548810000000    -0.0137458  
C375     C      0.360460000000     0.826400000000     0.464690000000    -0.0148325  
C376     C      0.324210000000     0.784080000000     0.528650000000    -0.0144813  
C377     C      0.189480000000     0.845120000000     0.372430000000    -0.0146215  
C378     C      0.196330000000     0.838970000000     0.464430000000    -0.0146347  
C379     C      0.180330000000     0.809190000000     0.364320000000    -0.0136276  
C380     C      0.187050000000     0.803090000000     0.455700000000    -0.0134339  
C381     C      0.680220000000     0.500740000000     0.460480000000    -0.0147693  
C382     C      0.667120000000     0.545060000000     0.433210000000    -0.0148247  
C383     C      0.715170000000     0.528320000000     0.467590000000    -0.0121168  
C384     C      0.702570000000     0.570820000000     0.441550000000    -0.0119101  
C385     C      0.856540000000     0.538800000000     0.338720000000    -0.014743   
C386     C      0.805090000000     0.481830000000     0.327560000000    -0.0147666  
C387     C      0.875800000000     0.521200000000     0.335740000000    -0.0119302  
C388     C      0.826760000000     0.466800000000     0.325970000000    -0.0121021  
C389     C      0.002840000000     0.869610000000     0.963300000000    -0.0113811  
C390     C      0.018040000000     0.828500000000     0.984400000000    -0.0115115  
C391     C      0.990450000000     0.869210000000     0.015940000000    -0.014975   
C392     C      0.005960000000     0.825270000000     0.038060000000    -0.0150642  
C393     C      0.844420000000     0.856880000000     0.110820000000    -0.0152156  
C394     C      0.895580000000     0.914340000000     0.115160000000    -0.0154855  
C395     C      0.849890000000     0.852280000000     0.165730000000    -0.0119076  
C396     C      0.898940000000     0.907180000000     0.169910000000    -0.0115765  
C397     C      0.017920000000     0.878420000000     0.339350000000    -0.0146422  
C398     C      0.050230000000     0.867350000000     0.275420000000    -0.0154225  
C399     C      0.049070000000     0.909260000000     0.355950000000    -0.0134265  
C400     C      0.080580000000     0.898650000000     0.292570000000    -0.0124505  
C401     C      0.869290000000     0.699130000000     0.190760000000    -0.0138644  
C402     C      0.876680000000     0.715260000000     0.281370000000    -0.0139201  
C403     C      0.833370000000     0.675470000000     0.199890000000    -0.0140921  
C404     C      0.840740000000     0.691830000000     0.290410000000    -0.0139039  
C405     C      0.625720000000     0.494510000000     0.845540000000    -0.0124197  
C406     C      0.652140000000     0.546430000000     0.894120000000    -0.0124415  
C407     C      0.657700000000     0.495400000000     0.838800000000    -0.0149679  
C408     C      0.684890000000     0.548830000000     0.889890000000    -0.0146192  
C409     C      0.524260000000     0.324710000000     0.943220000000    -0.0151008  
C410     C      0.487380000000     0.341750000000     0.899810000000    -0.0148564  
C411     C      0.515470000000     0.334070000000     0.993020000000    -0.0121534  
C412     C      0.479520000000     0.349820000000     0.951280000000    -0.0118834  
C413     C      0.659830000000     0.511150000000     0.202330000000    -0.0145228  
C414     C      0.698260000000     0.511330000000     0.137570000000    -0.0145831  
C415     C      0.634100000000     0.477040000000     0.184150000000    -0.0132194  
C416     C      0.671470000000     0.477580000000     0.119210000000    -0.0135537  
C417     C      0.347550000000     0.487010000000     0.295930000000    -0.0122558  
C418     C      0.362600000000     0.543790000000     0.319190000000    -0.0120895  
C419     C      0.311940000000     0.476460000000     0.291700000000    -0.014698   
C420     C      0.327720000000     0.535820000000     0.315840000000    -0.0147186  
C421     C      0.514880000000     0.676620000000     0.261160000000    -0.014677   
C422     C      0.482650000000     0.699000000000     0.217690000000    -0.0148948  
C423     C      0.517190000000     0.662420000000     0.210970000000    -0.0127267  
C424     C      0.485830000000     0.684010000000     0.168900000000    -0.012575   
C425     C      0.350070000000     0.556850000000     0.993690000000    -0.0147988  
C426     C      0.308250000000     0.513800000000     0.052320000000    -0.0152075  
C427     C      0.324390000000     0.564250000000     0.974940000000    -0.0130333  
C428     C      0.283630000000     0.522350000000     0.032220000000    -0.0127509  
C429     C      0.501830000000     0.494470000000     0.120780000000    -0.0141153  
C430     C      0.512400000000     0.525850000000     0.040170000000    -0.0140766  
C431     C      0.466250000000     0.484090000000     0.117450000000    -0.0137697  
C432     C      0.476750000000     0.515500000000     0.037350000000    -0.014038   
Cd1      Cd     0.415820000000     0.557280000000     0.146510000000     0.507734   
Cd2      Cd     0.571630000000     0.460380000000     0.019480000000     0.50823    
Cd3      Cd     0.941410000000     0.826280000000     0.187920000000     0.508104   
Cd4      Cd     0.768530000000     0.564820000000     0.294770000000     0.508606   
Cd5      Cd     0.253280000000     0.757990000000     0.369990000000     0.507506   
Cd6      Cd     0.137880000000     0.905490000000     0.459460000000     0.507991   
Cd7      Cd     0.578310000000     0.130650000000     0.494840000000     0.507345   
Cd8      Cd     0.447190000000     0.875960000000     0.651900000000     0.50726    
Cd9      Cd     0.893510000000     0.098700000000     0.711100000000     0.507785   
Cd10     Cd     0.758280000000     0.226560000000     0.800470000000     0.508536   
Cd11     Cd     0.234940000000     0.481280000000     0.855740000000     0.507974   
Cd12     Cd     0.096790000000     0.221010000000     0.971300000000     0.507438   
Cd13     Cd     0.916920000000     0.814860000000     0.663570000000     0.508569   
Cd14     Cd     0.777040000000     0.553690000000     0.787170000000     0.508275   
Cd15     Cd     0.205950000000     0.133940000000     0.197160000000     0.507908   
Cd16     Cd     0.467530000000     0.241030000000     0.277880000000     0.508035   
Cd17     Cd     0.870440000000     0.461260000000     0.500350000000     0.508103   
Cd18     Cd     0.125370000000     0.580970000000     0.619850000000     0.508296   
Cd19     Cd     0.101340000000     0.210850000000     0.488550000000     0.508283   
Cd20     Cd     0.206240000000     0.468640000000     0.345650000000     0.508245   
Cd21     Cd     0.439880000000     0.876880000000     0.138280000000     0.507821   
Cd22     Cd     0.560110000000     0.136260000000     0.014560000000     0.50829    
Cd23     Cd     0.836170000000     0.917910000000     0.958320000000     0.507983   
Cd24     Cd     0.571420000000     0.798030000000     0.885760000000     0.50783    
Cd25     Cd     0.139910000000     0.580980000000     0.116430000000     0.508509   
Cd26     Cd     0.883360000000     0.447390000000     0.000680000000     0.507247   
Cd27     Cd     0.234830000000     0.121040000000     0.669760000000     0.509622   
Cd28     Cd     0.492280000000     0.260000000000     0.778710000000     0.508247   
Cd29     Cd     0.227190000000     0.781860000000     0.840590000000     0.508758   
Cd30     Cd     0.126980000000     0.937240000000     0.965460000000     0.508045   
Cd31     Cd     0.559680000000     0.450290000000     0.498490000000     0.508338   
Cd32     Cd     0.456180000000     0.594690000000     0.664640000000     0.509903   
Cd33     Cd     0.910870000000     0.109450000000     0.184830000000     0.508318   
Cd34     Cd     0.793850000000     0.254220000000     0.289810000000     0.508149   
Cd35     Cd     0.795920000000     0.909430000000     0.463930000000     0.508113   
Cd36     Cd     0.535350000000     0.777270000000     0.366410000000     0.508501   
H1       H      0.658630000000     0.844270000000     0.480860000000     0.0511885  
H2       H      0.668590000000     0.806080000000     0.415730000000     0.0509453  
H3       H      0.647170000000     0.808370000000     0.334330000000     0.0539702  
H4       H      0.685700000000     0.888000000000     0.476150000000     0.0544469  
H5       H      0.631960000000     0.869540000000     0.437470000000     0.0541184  
H6       H      0.664730000000     0.889460000000     0.393970000000     0.0489497  
H7       H      0.701310000000     0.827410000000     0.372560000000     0.0543375  
H8       H      0.673860000000     0.852250000000     0.330890000000     0.0492883  
H9       H      0.853100000000     0.033610000000     0.366850000000     0.0508847  
H10      H      0.821570000000     0.988600000000     0.290650000000     0.0511698  
H11      H      0.861830000000     0.993440000000     0.230460000000     0.0531275  
H12      H      0.873290000000     0.021820000000     0.411370000000     0.0534371  
H13      H      0.910740000000     0.063280000000     0.348970000000     0.053618   
H14      H      0.911460000000     0.025410000000     0.348550000000     0.0488837  
H15      H      0.824460000000     0.952040000000     0.293060000000     0.0534977  
H16      H      0.882140000000     0.983660000000     0.277670000000     0.0472933  
H17      H      0.891270000000     0.218110000000     0.270120000000     0.0502982  
H18      H      0.866900000000     0.209930000000     0.177700000000     0.0503327  
H19      H      0.837870000000     0.151440000000     0.156380000000     0.0543539  
H20      H      0.863700000000     0.208520000000     0.321160000000     0.0542721  
H21      H      0.877270000000     0.164510000000     0.304650000000     0.0537396  
H22      H      0.835020000000     0.150170000000     0.299440000000     0.0494087  
H23      H      0.824660000000     0.195630000000     0.172700000000     0.0539911  
H24      H      0.810720000000     0.142200000000     0.207900000000     0.0495283  
H25      H      0.451140000000     0.706150000000     0.541080000000     0.0486031  
H26      H      0.506980000000     0.736000000000     0.580180000000     0.0462213  
H27      H      0.529820000000     0.700280000000     0.588350000000     0.0541063  
H28      H      0.447290000000     0.699020000000     0.474830000000     0.0538457  
H29      H      0.434400000000     0.648750000000     0.525970000000     0.0545849  
H30      H      0.466190000000     0.659950000000     0.481560000000     0.0514665  
H31      H      0.541820000000     0.750870000000     0.540710000000     0.0524632  
H32      H      0.528330000000     0.694200000000     0.521990000000     0.0525489  
H33      H      0.458640000000     0.487320000000     0.564450000000     0.0492009  
H34      H      0.489900000000     0.493400000000     0.648910000000     0.0494329  
H35      H      0.546450000000     0.513750000000     0.631140000000     0.0541264  
H36      H      0.462760000000     0.524210000000     0.537390000000     0.0534691  
H37      H      0.495700000000     0.504280000000     0.494050000000     0.0542044  
H38      H      0.519460000000     0.545200000000     0.519030000000     0.050527   
H39      H      0.513770000000     0.534150000000     0.674450000000     0.0546015  
H40      H      0.551360000000     0.551130000000     0.604790000000     0.0506109  
H41      H      0.169390000000     0.838640000000     0.958660000000     0.0515561  
H42      H      0.142590000000     0.832230000000     0.866530000000     0.0510034  
H43      H      0.159160000000     0.887090000000     0.834500000000     0.0533891  
H44      H      0.211170000000     0.850550000000     0.959620000000     0.054543   
H45      H      0.202120000000     0.897150000000     0.979390000000     0.0545485  
H46      H      0.226830000000     0.904580000000     0.925160000000     0.0489823  
H47      H      0.169070000000     0.840870000000     0.814250000000     0.0540654  
H48      H      0.200920000000     0.898820000000     0.837290000000     0.0489432  
H49      H      0.556680000000     0.322830000000     0.585200000000     0.0478761  
H50      H      0.592150000000     0.366030000000     0.648410000000     0.0482982  
H51      H      0.578730000000     0.409170000000     0.655220000000     0.0543182  
H52      H      0.516590000000     0.291440000000     0.602590000000     0.0531947  
H53      H      0.518420000000     0.335780000000     0.547960000000     0.0536162  
H54      H      0.499220000000     0.331950000000     0.607020000000     0.0518943  
H55      H      0.576990000000     0.364970000000     0.710140000000     0.0536336  
H56      H      0.539120000000     0.380540000000     0.677990000000     0.0522607  
H57      H      0.176470000000     0.073550000000     0.889900000000     0.0466404  
H58      H      0.127800000000     0.039840000000     0.834610000000     0.0481314  
H59      H      0.143140000000     0.029740000000     0.753030000000     0.0548667  
H60      H      0.195440000000     0.053700000000     0.920210000000     0.0530793  
H61      H      0.225730000000     0.088020000000     0.845480000000     0.053652   
H62      H      0.215000000000     0.045590000000     0.840740000000     0.0521417  
H63      H      0.112370000000     0.996340000000     0.827390000000     0.0544795  
H64      H      0.159970000000     0.006860000000     0.779940000000     0.0528603  
H65      H      0.354820000000     0.178230000000     0.789000000000     0.0511719  
H66      H      0.370290000000     0.158340000000     0.703870000000     0.0512405  
H67      H      0.349280000000     0.173780000000     0.632260000000     0.0539233  
H68      H      0.378430000000     0.221390000000     0.803580000000     0.0538755  
H69      H      0.324330000000     0.205110000000     0.767840000000     0.0536437  
H70      H      0.357250000000     0.235660000000     0.731210000000     0.0487144  
H71      H      0.403150000000     0.189700000000     0.668210000000     0.0544838  
H72      H      0.372450000000     0.216620000000     0.649140000000     0.049024   
H73      H      0.776820000000     0.339840000000     0.114420000000     0.0474155  
H74      H      0.808860000000     0.382050000000     0.182840000000     0.0472279  
H75      H      0.842350000000     0.367160000000     0.231440000000     0.0537574  
H76      H      0.797520000000     0.338820000000     0.059280000000     0.0524791  
H77      H      0.785220000000     0.293690000000     0.122420000000     0.0528943  
H78      H      0.826890000000     0.318380000000     0.105750000000     0.0511793  
H79      H      0.850710000000     0.411560000000     0.172280000000     0.0533906  
H80      H      0.864350000000     0.368020000000     0.176750000000     0.0526607  
H81      H      0.170610000000     0.658500000000     0.931770000000     0.0517272  
H82      H      0.171960000000     0.701390000000     0.006960000000     0.0521347  
H83      H      0.202480000000     0.698370000000     0.077320000000     0.0526378  
H84      H      0.207600000000     0.674330000000     0.897640000000     0.0536209  
H85      H      0.200000000000     0.632690000000     0.963060000000     0.0537719  
H86      H      0.236000000000     0.672170000000     0.970960000000     0.0484044  
H87      H      0.209600000000     0.739510000000     0.011620000000     0.0537855  
H88      H      0.237350000000     0.711270000000     0.038690000000     0.0462445  
H89      H      0.024670000000     0.555050000000     0.004130000000     0.0494406  
H90      H      0.006940000000     0.553210000000     0.097260000000     0.0495222  
H91      H      0.970250000000     0.496290000000     0.123020000000     0.0543202  
H92      H      0.054920000000     0.544470000000     0.991220000000     0.0536293  
H93      H      0.999090000000     0.499320000000     0.969810000000     0.0543696  
H94      H      0.018340000000     0.487190000000     0.015600000000     0.0506942  
H95      H      0.025900000000     0.541600000000     0.144320000000     0.0546421  
H96      H      0.000410000000     0.485420000000     0.111260000000     0.0509219  
H97      H      0.480230000000     0.688030000000     0.799690000000     0.0563816  
H98      H      0.543690000000     0.687840000000     0.785050000000     0.0563515  
H99      H      0.562760000000     0.689790000000     0.869130000000     0.0527944  
H100     H      0.449460000000     0.647570000000     0.818360000000     0.0531186  
H101     H      0.473930000000     0.688510000000     0.889500000000     0.0531382  
H102     H      0.475740000000     0.651460000000     0.896730000000     0.0469027  
H103     H      0.536550000000     0.647490000000     0.799310000000     0.0542433  
H104     H      0.526530000000     0.652320000000     0.885890000000     0.0462101  
H105     H      0.854050000000     0.054950000000     0.950830000000     0.0475194  
H106     H      0.908870000000     0.067090000000     0.940740000000     0.0427477  
H107     H      0.935960000000     0.080440000000     0.019240000000     0.0509846  
H108     H      0.822280000000     0.014210000000     0.967250000000     0.053375   
H109     H      0.840930000000     0.057760000000     0.036250000000     0.0531802  
H110     H      0.840600000000     0.020700000000     0.052330000000     0.0579261  
H111     H      0.919510000000     0.036040000000     0.951270000000     0.0522463  
H112     H      0.914740000000     0.038560000000     0.039960000000     0.0578782  
H113     H      0.717100000000     0.888510000000     0.870650000000     0.0504249  
H114     H      0.706580000000     0.888800000000     0.970190000000     0.0506769  
H115     H      0.664710000000     0.833830000000     0.995390000000     0.0539419  
H116     H      0.740930000000     0.870880000000     0.851780000000     0.0531981  
H117     H      0.681940000000     0.833260000000     0.837640000000     0.0539638  
H118     H      0.699280000000     0.816220000000     0.878660000000     0.0496738  
H119     H      0.723960000000     0.871030000000     0.009580000000     0.0544768  
H120     H      0.688500000000     0.816350000000     0.975570000000     0.0498803  
H121     H      0.506620000000     0.126690000000     0.807120000000     0.0457101  
H122     H      0.563340000000     0.168190000000     0.795310000000     0.0443181  
H123     H      0.571020000000     0.222520000000     0.801350000000     0.0533422  
H124     H      0.490310000000     0.113380000000     0.868780000000     0.0533601  
H125     H      0.473750000000     0.150460000000     0.825690000000     0.0529569  
H126     H      0.492370000000     0.165080000000     0.885380000000     0.0567404  
H127     H      0.589370000000     0.187420000000     0.848010000000     0.0522701  
H128     H      0.564170000000     0.219090000000     0.867280000000     0.0558669  
H129     H      0.456160000000     0.815660000000     0.299170000000     0.0562858  
H130     H      0.522450000000     0.859030000000     0.245490000000     0.0566364  
H131     H      0.532340000000     0.914960000000     0.250480000000     0.052154   
H132     H      0.462780000000     0.823600000000     0.364650000000     0.053126   
H133     H      0.439890000000     0.855000000000     0.318290000000     0.0518812  
H134     H      0.475130000000     0.879400000000     0.355800000000     0.0449515  
H135     H      0.552210000000     0.880490000000     0.292760000000     0.0526452  
H136     H      0.528010000000     0.912370000000     0.317320000000     0.0453253  
H137     H      0.544810000000     0.883320000000     0.010740000000     0.0498577  
H138     H      0.533130000000     0.834140000000     0.071730000000     0.049867   
H139     H      0.475270000000     0.800560000000     0.085620000000     0.0539801  
H140     H      0.538890000000     0.874490000000     0.945060000000     0.0537881  
H141     H      0.494410000000     0.879380000000     0.983650000000     0.0539953  
H142     H      0.480670000000     0.839260000000     0.957330000000     0.0501659  
H143     H      0.518720000000     0.794150000000     0.044480000000     0.0536749  
H144     H      0.468170000000     0.790390000000     0.020460000000     0.0502268  
H145     H      0.527250000000     0.018900000000     0.124010000000     0.0514127  
H146     H      0.513970000000     0.998070000000     0.026790000000     0.0518239  
H147     H      0.455820000000     0.961140000000     0.017290000000     0.0542524  
H148     H      0.517810000000     0.049800000000     0.142060000000     0.0538762  
H149     H      0.476740000000     0.992810000000     0.170650000000     0.0540954  
H150     H      0.460440000000     0.011520000000     0.130890000000     0.0489732  
H151     H      0.497530000000     0.017540000000     0.989000000000     0.0547418  
H152     H      0.448240000000     0.992810000000     0.038690000000     0.0491082  
H153     H      0.180960000000     0.478580000000     0.097770000000     0.0458683  
H154     H      0.126330000000     0.445310000000     0.126200000000     0.0446368  
H155     H      0.123070000000     0.442230000000     0.215290000000     0.052722   
H156     H      0.200080000000     0.522770000000     0.094090000000     0.0534409  
H157     H      0.217600000000     0.499330000000     0.166440000000     0.0506725  
H158     H      0.206150000000     0.528760000000     0.182950000000     0.0580527  
H159     H      0.102830000000     0.463590000000     0.143940000000     0.0518082  
H160     H      0.131520000000     0.483720000000     0.221240000000     0.0582273  
H161     H      0.166370000000     0.211600000000     0.680670000000     0.0468979  
H162     H      0.212910000000     0.245050000000     0.625240000000     0.0461036  
H163     H      0.233010000000     0.212690000000     0.585980000000     0.0533546  
H164     H      0.126740000000     0.186310000000     0.654850000000     0.0533244  
H165     H      0.154110000000     0.155170000000     0.683460000000     0.0541031  
H166     H      0.141330000000     0.148200000000     0.619570000000     0.0554315  
H167     H      0.207260000000     0.245270000000     0.558890000000     0.052778   
H168     H      0.196430000000     0.188900000000     0.551370000000     0.0552307  
H169     H      0.162910000000     0.322100000000     0.361250000000     0.0502539  
H170     H      0.187020000000     0.346770000000     0.453680000000     0.0508191  
H171     H      0.171010000000     0.386440000000     0.477920000000     0.0541173  
H172     H      0.120640000000     0.292270000000     0.358640000000     0.0532079  
H173     H      0.134490000000     0.349040000000     0.330850000000     0.053313   
H174     H      0.106650000000     0.333260000000     0.382160000000     0.0487721  
H175     H      0.158860000000     0.330470000000     0.504500000000     0.0543426  
H176     H      0.129130000000     0.355670000000     0.472160000000     0.0493187  
H177     H      0.139040000000     0.679390000000     0.740140000000     0.0567556  
H178     H      0.205970000000     0.704480000000     0.686400000000     0.0575378  
H179     H      0.192830000000     0.701270000000     0.598940000000     0.0556797  
H180     H      0.130750000000     0.712380000000     0.737190000000     0.0529936  
H181     H      0.102190000000     0.667190000000     0.671650000000     0.0523371  
H182     H      0.125110000000     0.708630000000     0.648080000000     0.044857   
H183     H      0.219670000000     0.745710000000     0.665850000000     0.0533848  
H184     H      0.176590000000     0.728000000000     0.606850000000     0.0464088  
H185     H      0.232420000000     0.581790000000     0.508020000000     0.0481723  
H186     H      0.203670000000     0.594000000000     0.440260000000     0.0456028  
H187     H      0.169710000000     0.545420000000     0.390690000000     0.051002   
H188     H      0.211400000000     0.561980000000     0.564590000000     0.0533183  
H189     H      0.218750000000     0.524700000000     0.505480000000     0.0542665  
H190     H      0.177470000000     0.510410000000     0.520620000000     0.0527339  
H191     H      0.162420000000     0.583060000000     0.449040000000     0.0519978  
H192     H      0.144360000000     0.524480000000     0.443220000000     0.0531145  
H193     H      0.804490000000     0.313130000000     0.521180000000     0.045912   
H194     H      0.860620000000     0.328220000000     0.509120000000     0.0457022  
H195     H      0.870650000000     0.321770000000     0.423420000000     0.0535559  
H196     H      0.791850000000     0.342580000000     0.509950000000     0.0532371  
H197     H      0.774510000000     0.297760000000     0.444390000000     0.0526655  
H198     H      0.796500000000     0.338970000000     0.420520000000     0.0569904  
H199     H      0.889990000000     0.368600000000     0.487060000000     0.0523456  
H200     H      0.867730000000     0.356550000000     0.404030000000     0.0559822  
H201     H      0.990520000000     0.549900000000     0.600950000000     0.0506346  
H202     H      0.008410000000     0.550990000000     0.506070000000     0.0504355  
H203     H      0.038660000000     0.522250000000     0.499260000000     0.053748   
H204     H      0.956860000000     0.512050000000     0.623300000000     0.0539471  
H205     H      0.009940000000     0.520570000000     0.652300000000     0.054467   
H206     H      0.987430000000     0.483760000000     0.615740000000     0.0496622  
H207     H      0.985670000000     0.513880000000     0.470270000000     0.0547255  
H208     H      0.004900000000     0.484770000000     0.522460000000     0.0498984  
H209     H      0.516090000000     0.401720000000     0.288760000000     0.0467457  
H210     H      0.464490000000     0.376890000000     0.333970000000     0.0459531  
H211     H      0.446610000000     0.321380000000     0.361810000000     0.0526464  
H212     H      0.553480000000     0.418550000000     0.322270000000     0.0521978  
H213     H      0.534180000000     0.362850000000     0.280780000000     0.0543141  
H214     H      0.542520000000     0.364290000000     0.346150000000     0.0555725  
H215     H      0.463710000000     0.376680000000     0.401130000000     0.0534054  
H216     H      0.479640000000     0.335250000000     0.404510000000     0.0563437  
H217     H      0.536080000000     0.191650000000     0.184000000000     0.0526503  
H218     H      0.481820000000     0.172260000000     0.121120000000     0.05279    
H219     H      0.480100000000     0.221980000000     0.101340000000     0.0529508  
H220     H      0.573840000000     0.211100000000     0.151350000000     0.0544761  
H221     H      0.562750000000     0.251450000000     0.195240000000     0.0537362  
H222     H      0.567990000000     0.257930000000     0.128910000000     0.0479526  
H223     H      0.491910000000     0.182220000000     0.056520000000     0.0540077  
H224     H      0.519610000000     0.240990000000     0.073970000000     0.046482   
H225     H      0.177940000000     0.979050000000     0.175270000000     0.0459938  
H226     H      0.122590000000     0.967040000000     0.184160000000     0.0432899  
H227     H      0.120580000000     0.016650000000     0.177110000000     0.0532039  
H228     H      0.194840000000     0.981160000000     0.114530000000     0.0538717  
H229     H      0.215360000000     0.036310000000     0.157760000000     0.0526471  
H230     H      0.198760000000     0.033580000000     0.096940000000     0.0572684  
H231     H      0.098300000000     0.961880000000     0.130170000000     0.0527846  
H232     H      0.128330000000     0.019860000000     0.111460000000     0.0564895  
H233     H      0.153040000000     0.194810000000     0.309950000000     0.0522703  
H234     H      0.172330000000     0.163870000000     0.382220000000     0.0521694  
H235     H      0.124270000000     0.126390000000     0.429370000000     0.0536438  
H236     H      0.133030000000     0.169400000000     0.256720000000     0.0526203  
H237     H      0.094860000000     0.171570000000     0.317730000000     0.0526348  
H238     H      0.087700000000     0.130580000000     0.307660000000     0.0478939  
H239     H      0.161160000000     0.122340000000     0.366460000000     0.0539926  
H240     H      0.104350000000     0.103740000000     0.373840000000     0.0481482  
H241     H      0.332280000000     0.142730000000     0.259090000000     0.0500102  
H242     H      0.346240000000     0.174710000000     0.172150000000     0.0504183  
H243     H      0.320410000000     0.207890000000     0.166680000000     0.0539804  
H244     H      0.353030000000     0.166410000000     0.313430000000     0.0538529  
H245     H      0.296170000000     0.154780000000     0.306010000000     0.0538816  
H246     H      0.325800000000     0.197980000000     0.308010000000     0.0498926  
H247     H      0.376270000000     0.217780000000     0.172610000000     0.0544013  
H248     H      0.341230000000     0.230680000000     0.221570000000     0.0497961  
H249     H      0.862470000000     0.524270000000     0.870730000000     0.0547382  
H250     H      0.800910000000     0.485290000000     0.927030000000     0.0555287  
H251     H      0.815250000000     0.497070000000     0.014640000000     0.0532208  
H252     H      0.874280000000     0.567050000000     0.868790000000     0.0536668  
H253     H      0.903740000000     0.553300000000     0.933760000000     0.0526054  
H254     H      0.882820000000     0.572950000000     0.957990000000     0.0462318  
H255     H      0.786510000000     0.511430000000     0.949260000000     0.0539489  
H256     H      0.831870000000     0.540570000000     0.004720000000     0.0468749  
H257     H      0.836040000000     0.538420000000     0.614010000000     0.0524331  
H258     H      0.827980000000     0.487150000000     0.679840000000     0.0526666  
H259     H      0.771790000000     0.457560000000     0.706800000000     0.0534913  
H260     H      0.819620000000     0.524040000000     0.552910000000     0.0537932  
H261     H      0.784120000000     0.535400000000     0.608310000000     0.0522085  
H262     H      0.765140000000     0.493760000000     0.585400000000     0.0461718  
H263     H      0.807790000000     0.446940000000     0.651820000000     0.0540354  
H264     H      0.758130000000     0.448000000000     0.643250000000     0.0478269  
H265     H      0.855190000000     0.823500000000     0.448470000000     0.0474788  
H266     H      0.806500000000     0.788700000000     0.498630000000     0.0464431  
H267     H      0.816630000000     0.795730000000     0.587540000000     0.0537189  
H268     H      0.869110000000     0.866570000000     0.439360000000     0.0540306  
H269     H      0.901350000000     0.854220000000     0.501680000000     0.054296   
H270     H      0.885960000000     0.879060000000     0.525720000000     0.0551919  
H271     H      0.783640000000     0.805730000000     0.524670000000     0.052719   
H272     H      0.825960000000     0.837780000000     0.585250000000     0.0546036  
H273     H      0.868540000000     0.886380000000     0.769760000000     0.050207   
H274     H      0.854410000000     0.832510000000     0.829930000000     0.0517872  
H275     H      0.903420000000     0.829590000000     0.840780000000     0.0522051  
H276     H      0.890880000000     0.925810000000     0.799800000000     0.0532004  
H277     H      0.924970000000     0.911950000000     0.745260000000     0.0534845  
H278     H      0.937680000000     0.919550000000     0.809380000000     0.048669   
H279     H      0.868230000000     0.842370000000     0.893280000000     0.0537504  
H280     H      0.924370000000     0.870600000000     0.866350000000     0.0462904  
H281     H      0.890600000000     0.684100000000     0.721850000000     0.0495764  
H282     H      0.846950000000     0.671440000000     0.651960000000     0.0500247  
H283     H      0.793510000000     0.648350000000     0.689420000000     0.0541554  
H284     H      0.903480000000     0.720290000000     0.759480000000     0.0536978  
H285     H      0.864320000000     0.667870000000     0.803190000000     0.0538791  
H286     H      0.850300000000     0.696570000000     0.797620000000     0.0500122  
H287     H      0.832840000000     0.700000000000     0.645060000000     0.0541276  
H288     H      0.806730000000     0.684680000000     0.726910000000     0.0501771  
H289     H      0.059970000000     0.249870000000     0.173670000000     0.0440531  
H290     H      0.075980000000     0.210640000000     0.195490000000     0.0435338  
H291     H      0.030060000000     0.156750000000     0.198900000000     0.0520432  
H292     H      0.056350000000     0.258790000000     0.109480000000     0.0528588  
H293     H      0.003460000000     0.224130000000     0.157810000000     0.0512367  
H294     H      0.006620000000     0.207760000000     0.099300000000     0.0590377  
H295     H      0.083190000000     0.187870000000     0.148460000000     0.05168    
H296     H      0.027180000000     0.152690000000     0.132580000000     0.0588363  
H297     H      0.184810000000     0.215830000000     0.093460000000     0.0566259  
H298     H      0.144260000000     0.145780000000     0.044800000000     0.0571851  
H299     H      0.151010000000     0.156850000000     0.956350000000     0.0529224  
H300     H      0.226360000000     0.227720000000     0.088420000000     0.0532405  
H301     H      0.206500000000     0.252520000000     0.022800000000     0.052479   
H302     H      0.225730000000     0.231020000000     0.999020000000     0.0451955  
H303     H      0.171980000000     0.133810000000     0.023030000000     0.0524482  
H304     H      0.194090000000     0.176500000000     0.961120000000     0.0451015  
H305     H      0.299810000000     0.490260000000     0.659960000000     0.0466804  
H306     H      0.319240000000     0.460680000000     0.712710000000     0.0460753  
H307     H      0.371400000000     0.497390000000     0.748890000000     0.0534772  
H308     H      0.281910000000     0.511880000000     0.688120000000     0.0529391  
H309     H      0.338930000000     0.548420000000     0.656500000000     0.0544636  
H310     H      0.333410000000     0.554030000000     0.721180000000     0.0550924  
H311     H      0.314790000000     0.459810000000     0.779460000000     0.0531088  
H312     H      0.355790000000     0.517910000000     0.785910000000     0.0546224  
H313     H      0.112660000000     0.500010000000     0.798890000000     0.0471753  
H314     H      0.151800000000     0.557160000000     0.828540000000     0.0474996  
H315     H      0.205760000000     0.566440000000     0.827450000000     0.0539641  
H316     H      0.106220000000     0.491580000000     0.733110000000     0.0532059  
H317     H      0.138970000000     0.470100000000     0.773670000000     0.0534024  
H318     H      0.159470000000     0.498200000000     0.723310000000     0.0544618  
H319     H      0.174510000000     0.589330000000     0.783970000000     0.053187   
H320     H      0.206290000000     0.564790000000     0.760650000000     0.0544095  
H321     H      0.157690000000     0.363790000000     0.966090000000     0.051504   
H322     H      0.196600000000     0.349610000000     0.907650000000     0.0521045  
H323     H      0.162760000000     0.305630000000     0.848860000000     0.0535734  
H324     H      0.142440000000     0.387060000000     0.935570000000     0.0537192  
H325     H      0.101980000000     0.326350000000     0.941440000000     0.0538992  
H326     H      0.110260000000     0.341880000000     0.878590000000     0.0482596  
H327     H      0.203590000000     0.365770000000     0.845270000000     0.05442    
H328     H      0.146990000000     0.330010000000     0.823640000000     0.0486091  
H329     H      0.693800000000     0.154180000000     0.019930000000     0.0459537  
H330     H      0.705350000000     0.210140000000     0.035090000000     0.0462261  
H331     H      0.715840000000     0.241430000000     0.959270000000     0.0524135  
H332     H      0.654340000000     0.122320000000     0.000730000000     0.0526151  
H333     H      0.697520000000     0.145120000000     0.932700000000     0.0538904  
H334     H      0.661500000000     0.145590000000     0.918270000000     0.0567207  
H335     H      0.674370000000     0.220550000000     0.029040000000     0.0533371  
H336     H      0.674940000000     0.217030000000     0.938860000000     0.0576186  
H337     H      0.890540000000     0.374120000000     0.822470000000     0.0461727  
H338     H      0.852530000000     0.391390000000     0.793670000000     0.046758   
H339     H      0.797860000000     0.346750000000     0.801050000000     0.0537321  
H340     H      0.899690000000     0.375220000000     0.887790000000     0.0531228  
H341     H      0.863280000000     0.318200000000     0.852900000000     0.053088   
H342     H      0.846630000000     0.328390000000     0.905010000000     0.055276   
H343     H      0.832880000000     0.404090000000     0.837950000000     0.0530716  
H344     H      0.799260000000     0.348320000000     0.867860000000     0.0555209  
H345     H      0.957140000000     0.188710000000     0.535810000000     0.0461841  
H346     H      0.942470000000     0.134250000000     0.500280000000     0.0464715  
H347     H      0.987120000000     0.124690000000     0.503550000000     0.0538106  
H348     H      0.956410000000     0.193890000000     0.602230000000     0.05284    
H349     H      0.012120000000     0.218100000000     0.565060000000     0.0532963  
H350     H      0.003640000000     0.188630000000     0.613710000000     0.0552823  
H351     H      0.931230000000     0.099520000000     0.540670000000     0.0528991  
H352     H      0.986140000000     0.122890000000     0.570400000000     0.0556336  
H353     H      0.787790000000     0.955260000000     0.698300000000     0.0460104  
H354     H      0.835690000000     0.950290000000     0.704930000000     0.0467095  
H355     H      0.854630000000     0.946160000000     0.623930000000     0.0525187  
H356     H      0.791290000000     0.994700000000     0.687620000000     0.0527086  
H357     H      0.772620000000     0.955910000000     0.612980000000     0.0537972  
H358     H      0.807280000000     0.995620000000     0.601710000000     0.0573951  
H359     H      0.875300000000     0.985830000000     0.697950000000     0.0533849  
H360     H      0.868080000000     0.988300000000     0.609280000000     0.0569664  
H361     H      0.968700000000     0.162300000000     0.876590000000     0.0517729  
H362     H      0.013430000000     0.171580000000     0.798820000000     0.0523853  
H363     H      0.046670000000     0.149110000000     0.827340000000     0.0538664  
H364     H      0.936970000000     0.120240000000     0.883060000000     0.0504912  
H365     H      0.982030000000     0.138560000000     0.946310000000     0.051832   
H366     H      0.973940000000     0.102970000000     0.910160000000     0.0436486  
H367     H      0.002900000000     0.134450000000     0.765140000000     0.0542243  
H368     H      0.011480000000     0.109510000000     0.838540000000     0.0482756  
H369     H      0.851220000000     0.184840000000     0.814460000000     0.0504024  
H370     H      0.853700000000     0.201100000000     0.717700000000     0.0503616  
H371     H      0.832580000000     0.151540000000     0.666200000000     0.0542087  
H372     H      0.812520000000     0.166320000000     0.844260000000     0.0545308  
H373     H      0.829280000000     0.125550000000     0.821340000000     0.0539559  
H374     H      0.792230000000     0.117170000000     0.792450000000     0.0498587  
H375     H      0.816510000000     0.192690000000     0.689230000000     0.0535955  
H376     H      0.794300000000     0.133360000000     0.697350000000     0.0496772  
H377     H      0.330560000000     0.855080000000     0.727590000000     0.055154   
H378     H      0.345920000000     0.810690000000     0.789630000000     0.055467   
H379     H      0.399970000000     0.846810000000     0.820010000000     0.0534349  
H380     H      0.320970000000     0.879240000000     0.768060000000     0.053033   
H381     H      0.377760000000     0.909770000000     0.734180000000     0.0531753  
H382     H      0.374870000000     0.908950000000     0.801150000000     0.0460005  
H383     H      0.342940000000     0.817740000000     0.854620000000     0.0538607  
H384     H      0.388190000000     0.873080000000     0.850670000000     0.0470589  
H385     H      0.541200000000     0.812080000000     0.672140000000     0.0455377  
H386     H      0.578270000000     0.870360000000     0.696390000000     0.0466264  
H387     H      0.549740000000     0.897580000000     0.723960000000     0.0534925  
H388     H      0.522700000000     0.780640000000     0.719170000000     0.0516919  
H389     H      0.485890000000     0.798200000000     0.679630000000     0.0535909  
H390     H      0.488480000000     0.801660000000     0.746290000000     0.0543959  
H391     H      0.587710000000     0.881270000000     0.761090000000     0.0535785  
H392     H      0.533650000000     0.871100000000     0.777330000000     0.0547973  
H393     H      0.673970000000     0.209090000000     0.350400000000     0.0552024  
H394     H      0.698770000000     0.169840000000     0.405780000000     0.0547185  
H395     H      0.655620000000     0.112800000000     0.401240000000     0.0532169  
H396     H      0.674900000000     0.202890000000     0.284610000000     0.0539659  
H397     H      0.619990000000     0.168330000000     0.325530000000     0.0534686  
H398     H      0.634180000000     0.145640000000     0.290410000000     0.0472653  
H399     H      0.710100000000     0.148950000000     0.361540000000     0.0525662  
H400     H      0.655350000000     0.114060000000     0.334150000000     0.0461116  
H401     H      0.541230000000     0.220220000000     0.407380000000     0.0538185  
H402     H      0.505110000000     0.158480000000     0.350980000000     0.0531592  
H403     H      0.480910000000     0.114380000000     0.412290000000     0.0533356  
H404     H      0.515080000000     0.232510000000     0.435120000000     0.0533404  
H405     H      0.534460000000     0.204780000000     0.494820000000     0.0537944  
H406     H      0.491410000000     0.185480000000     0.490200000000     0.0476116  
H407     H      0.462580000000     0.142970000000     0.352710000000     0.0533102  
H408     H      0.460050000000     0.132640000000     0.441410000000     0.0470413  
H409     H      0.629170000000     0.193150000000     0.690400000000     0.047006   
H410     H      0.669390000000     0.236790000000     0.628740000000     0.048317   
H411     H      0.719970000000     0.237880000000     0.634240000000     0.0529811  
H412     H      0.607040000000     0.150750000000     0.670950000000     0.0525414  
H413     H      0.650880000000     0.162130000000     0.730790000000     0.0534622  
H414     H      0.656280000000     0.147580000000     0.671640000000     0.0517669  
H415     H      0.676180000000     0.223170000000     0.569710000000     0.0526363  
H416     H      0.702560000000     0.196930000000     0.609450000000     0.0504971  
H417     H      0.553130000000     0.998860000000     0.579630000000     0.0498604  
H418     H      0.521300000000     0.017870000000     0.640270000000     0.0504502  
H419     H      0.494400000000     0.041250000000     0.592120000000     0.0541797  
H420     H      0.529350000000     0.961790000000     0.544260000000     0.0538323  
H421     H      0.548370000000     0.014040000000     0.494700000000     0.0535032  
H422     H      0.505380000000     0.987480000000     0.495740000000     0.0492071  
H423     H      0.478350000000     0.991440000000     0.643910000000     0.054341   
H424     H      0.472250000000     0.003680000000     0.557120000000     0.0498884  
H425     H      0.039830000000     0.892890000000     0.588810000000     0.0543232  
H426     H      0.012310000000     0.832400000000     0.531180000000     0.0535642  
H427     H      0.048140000000     0.810140000000     0.540240000000     0.0527063  
H428     H      0.034650000000     0.885480000000     0.654750000000     0.0547766  
H429     H      0.089990000000     0.900910000000     0.623120000000     0.0536315  
H430     H      0.069240000000     0.862120000000     0.655540000000     0.0474435  
H431     H      0.993210000000     0.796180000000     0.569650000000     0.0535858  
H432     H      0.044190000000     0.809150000000     0.607080000000     0.0468271  
H433     H      0.177370000000     0.031570000000     0.523610000000     0.0555073  
H434     H      0.210390000000     0.005700000000     0.590890000000     0.0557064  
H435     H      0.239720000000     0.989840000000     0.534710000000     0.0528852  
H436     H      0.206260000000     0.071960000000     0.501690000000     0.0539127  
H437     H      0.192700000000     0.025940000000     0.439650000000     0.0539286  
H438     H      0.234820000000     0.051410000000     0.454080000000     0.0467505  
H439     H      0.252360000000     0.035880000000     0.595910000000     0.0535943  
H440     H      0.261760000000     0.030750000000     0.508910000000     0.0457979  
H441     H      0.298960000000     0.769380000000     0.128710000000     0.0437153  
H442     H      0.294880000000     0.818550000000     0.136530000000     0.0450905  
H443     H      0.290240000000     0.830910000000     0.221980000000     0.0535231  
H444     H      0.336880000000     0.771200000000     0.137030000000     0.0528261  
H445     H      0.296520000000     0.745450000000     0.208770000000     0.0529194  
H446     H      0.335750000000     0.778090000000     0.225980000000     0.0575632  
H447     H      0.329790000000     0.857990000000     0.149980000000     0.0527821  
H448     H      0.331060000000     0.842740000000     0.235610000000     0.0581045  
H449     H      0.159160000000     0.660350000000     0.269220000000     0.0574799  
H450     H      0.219060000000     0.650340000000     0.262560000000     0.0572538  
H451     H      0.229240000000     0.643430000000     0.348640000000     0.0521738  
H452     H      0.124480000000     0.620580000000     0.279800000000     0.0538899  
H453     H      0.147590000000     0.656300000000     0.357600000000     0.0535338  
H454     H      0.142930000000     0.615920000000     0.361060000000     0.0452122  
H455     H      0.204280000000     0.607310000000     0.271420000000     0.0542958  
H456     H      0.189200000000     0.608640000000     0.356220000000     0.0399272  
H457     H      0.354380000000     0.762490000000     0.529830000000     0.0491074  
H458     H      0.390380000000     0.804570000000     0.463040000000     0.0481907  
H459     H      0.363790000000     0.831150000000     0.423860000000     0.0533669  
H460     H      0.350220000000     0.777470000000     0.589430000000     0.0541403  
H461     H      0.302530000000     0.759100000000     0.532100000000     0.0539546  
H462     H      0.320340000000     0.801090000000     0.552550000000     0.0508759  
H463     H      0.411510000000     0.847700000000     0.478610000000     0.0520296  
H464     H      0.360910000000     0.847980000000     0.482510000000     0.0513572  
H465     H      0.223040000000     0.854430000000     0.463890000000     0.050743   
H466     H      0.215650000000     0.861110000000     0.364720000000     0.0510366  
H467     H      0.188000000000     0.806540000000     0.326320000000     0.0544722  
H468     H      0.187980000000     0.841130000000     0.502180000000     0.0543371  
H469     H      0.199540000000     0.796010000000     0.483600000000     0.0525609  
H470     H      0.160690000000     0.787240000000     0.461900000000     0.0488563  
H471     H      0.176180000000     0.851540000000     0.345080000000     0.0544461  
H472     H      0.153660000000     0.793590000000     0.366220000000     0.0494723  
H473     H      0.662950000000     0.540290000000     0.392460000000     0.0565596  
H474     H      0.678370000000     0.487910000000     0.424690000000     0.0559421  
H475     H      0.731590000000     0.518470000000     0.461890000000     0.0514713  
H476     H      0.652220000000     0.555590000000     0.445900000000     0.0536856  
H477     H      0.709710000000     0.592350000000     0.416650000000     0.0532531  
H478     H      0.705590000000     0.579550000000     0.480850000000     0.0461363  
H479     H      0.673860000000     0.482410000000     0.490990000000     0.0534302  
H480     H      0.718140000000     0.537380000000     0.506700000000     0.0457892  
H481     H      0.792780000000     0.476080000000     0.364420000000     0.0563498  
H482     H      0.855890000000     0.545590000000     0.378300000000     0.0572952  
H483     H      0.898800000000     0.535510000000     0.356570000000     0.0534909  
H484     H      0.786010000000     0.469570000000     0.298700000000     0.0528982  
H485     H      0.813300000000     0.441010000000     0.339990000000     0.0520935  
H486     H      0.833410000000     0.466120000000     0.286390000000     0.0447479  
H487     H      0.869470000000     0.562180000000     0.317140000000     0.0526107  
H488     H      0.881770000000     0.520190000000     0.295890000000     0.0458611  
H489     H      0.997790000000     0.810240000000     0.960870000000     0.0446137  
H490     H      0.982610000000     0.850480000000     0.940670000000     0.0442266  
H491     H      0.967290000000     0.868970000000     0.013190000000     0.0511381  
H492     H      0.037610000000     0.822560000000     0.982780000000     0.052069   
H493     H      0.991960000000     0.798650000000     0.048070000000     0.0527923  
H494     H      0.027170000000     0.836920000000     0.063400000000     0.0577481  
H495     H      0.011020000000     0.893970000000     0.945550000000     0.0532793  
H496     H      0.007850000000     0.892570000000     0.035030000000     0.058486   
H497     H      0.913480000000     0.911560000000     0.092700000000     0.0562926  
H498     H      0.851860000000     0.842280000000     0.087600000000     0.0563988  
H499     H      0.839400000000     0.825600000000     0.173950000000     0.0527315  
H500     H      0.901890000000     0.940530000000     0.111890000000     0.0530929  
H501     H      0.924740000000     0.921050000000     0.180940000000     0.0532925  
H502     H      0.885850000000     0.916130000000     0.193340000000     0.0447718  
H503     H      0.818180000000     0.846430000000     0.104710000000     0.0537729  
H504     H      0.837020000000     0.861550000000     0.189010000000     0.0462125  
H505     H      0.049210000000     0.845890000000     0.294630000000     0.0526732  
H506     H      0.012940000000     0.857980000000     0.365410000000     0.0517003  
H507     H      0.047280000000     0.913930000000     0.396170000000     0.0535712  
H508     H      0.052230000000     0.864270000000     0.234670000000     0.0542232  
H509     H      0.101900000000     0.895890000000     0.286440000000     0.0532916  
H510     H      0.083540000000     0.919530000000     0.269120000000     0.0451438  
H511     H      0.997710000000     0.883320000000     0.342570000000     0.0538292  
H512     H      0.051550000000     0.930650000000     0.334450000000     0.0478496  
H513     H      0.889620000000     0.701910000000     0.290230000000     0.0503084  
H514     H      0.881910000000     0.684920000000     0.193860000000     0.0500733  
H515     H      0.824710000000     0.654150000000     0.174020000000     0.053962   
H516     H      0.885480000000     0.736510000000     0.307420000000     0.0540403  
H517     H      0.837220000000     0.682210000000     0.329200000000     0.0545269  
H518     H      0.828250000000     0.706150000000     0.287000000000     0.0502106  
H519     H      0.872710000000     0.708860000000     0.152050000000     0.0541825  
H520     H      0.820260000000     0.688610000000     0.190820000000     0.0501154  
H521     H      0.649460000000     0.559830000000     0.862000000000     0.0466635  
H522     H      0.622560000000     0.507570000000     0.813380000000     0.0467948  
H523     H      0.658430000000     0.486650000000     0.800500000000     0.0537173  
H524     H      0.651220000000     0.558730000000     0.929000000000     0.0532187  
H525     H      0.703700000000     0.575250000000     0.885550000000     0.0533127  
H526     H      0.689830000000     0.540000000000     0.925430000000     0.0546571  
H527     H      0.605520000000     0.468520000000     0.844910000000     0.0529679  
H528     H      0.658400000000     0.477700000000     0.865520000000     0.0551417  
H529     H      0.505270000000     0.365170000000     0.881400000000     0.0556814  
H530     H      0.548550000000     0.344900000000     0.931900000000     0.0556982  
H531     H      0.535690000000     0.342070000000     0.019850000000     0.0532636  
H532     H      0.465110000000     0.330550000000     0.876770000000     0.0535451  
H533     H      0.472980000000     0.369250000000     0.947800000000     0.052495   
H534     H      0.458270000000     0.327230000000     0.966370000000     0.045999   
H535     H      0.525950000000     0.302220000000     0.948960000000     0.0529879  
H536     H      0.494150000000     0.311750000000     0.008590000000     0.0463256  
H537     H      0.698690000000     0.530610000000     0.113060000000     0.0512299  
H538     H      0.655900000000     0.529910000000     0.183610000000     0.0520728  
H539     H      0.609860000000     0.473650000000     0.191020000000     0.0534274  
H540     H      0.721800000000     0.512560000000     0.133450000000     0.0537707  
H541     H      0.674580000000     0.475230000000     0.078590000000     0.0533657  
H542     H      0.674020000000     0.458230000000     0.138940000000     0.0486718  
H543     H      0.656670000000     0.512770000000     0.243140000000     0.0539704  
H544     H      0.636130000000     0.458230000000     0.206430000000     0.0483512  
H545     H      0.367180000000     0.538910000000     0.358070000000     0.0459998  
H546     H      0.352300000000     0.482480000000     0.334900000000     0.04572    
H547     H      0.297270000000     0.451250000000     0.307620000000     0.0525593  
H548     H      0.379190000000     0.570390000000     0.311230000000     0.0525466  
H549     H      0.323110000000     0.548470000000     0.347080000000     0.0535002  
H550     H      0.324670000000     0.546330000000     0.280480000000     0.0564126  
H551     H      0.352950000000     0.471680000000     0.270660000000     0.0537754  
H552     H      0.305610000000     0.474850000000     0.251460000000     0.0562246  
H553     H      0.458360000000     0.682270000000     0.233600000000     0.0544986  
H554     H      0.495470000000     0.656440000000     0.283580000000     0.0533849  
H555     H      0.519220000000     0.640210000000     0.217410000000     0.0530176  
H556     H      0.484110000000     0.722840000000     0.209030000000     0.0539128  
H557     H      0.464790000000     0.677630000000     0.144530000000     0.0537669  
H558     H      0.507840000000     0.702960000000     0.149280000000     0.0476729  
H559     H      0.537900000000     0.685520000000     0.281670000000     0.05361    
H560     H      0.539530000000     0.681220000000     0.191860000000     0.0472805  
H561     H      0.304560000000     0.491240000000     0.032920000000     0.0525008  
H562     H      0.351900000000     0.539930000000     0.966650000000     0.0523836  
H563     H      0.329660000000     0.572910000000     0.935610000000     0.0531854  
H564     H      0.303420000000     0.507830000000     0.092700000000     0.0531344  
H565     H      0.259060000000     0.500320000000     0.034820000000     0.0508143  
H566     H      0.284350000000     0.541980000000     0.056280000000     0.0463732  
H567     H      0.373710000000     0.580220000000     0.994110000000     0.0537096  
H568     H      0.325790000000     0.584610000000     0.997970000000     0.0479398  
H569     H      0.525690000000     0.550520000000     0.058210000000     0.0503839  
H570     H      0.514280000000     0.517030000000     0.144270000000     0.0509312  
H571     H      0.456250000000     0.480950000000     0.155770000000     0.0544229  
H572     H      0.521940000000     0.528280000000     0.001660000000     0.0539697  
H573     H      0.474420000000     0.535100000000     0.018080000000     0.0536683  
H574     H      0.464100000000     0.492700000000     0.014400000000     0.0495669  
H575     H      0.504000000000     0.474690000000     0.139840000000     0.0543121  
H576     H      0.453210000000     0.459750000000     0.098390000000     0.0495299  
N1       N      0.636560000000     0.837880000000     0.383770000000    -0.150993   
N2       N      0.696010000000     0.857450000000     0.428470000000    -0.15063    
N3       N      0.887550000000     0.030840000000     0.286410000000    -0.151774   
N4       N      0.844730000000     0.985390000000     0.355580000000    -0.1518     
N5       N      0.857710000000     0.154920000000     0.229940000000    -0.150964   
N6       N      0.844430000000     0.205500000000     0.247320000000    -0.150873   
N7       N      0.482440000000     0.670210000000     0.556250000000    -0.150739   
N8       N      0.495750000000     0.726810000000     0.503420000000    -0.152194   
N9       N      0.524010000000     0.509220000000     0.559470000000    -0.151367   
N10      N      0.486050000000     0.529830000000     0.608590000000    -0.151439   
N11      N      0.179870000000     0.894440000000     0.908160000000    -0.151492   
N12      N      0.188830000000     0.841510000000     0.886870000000    -0.150849   
N13      N      0.545240000000     0.374820000000     0.601200000000    -0.150974   
N14      N      0.545070000000     0.325950000000     0.660310000000    -0.151977   
N15      N      0.187790000000     0.058180000000     0.793390000000    -0.150855   
N16      N      0.153060000000     0.022240000000     0.876730000000    -0.152122   
N17      N      0.333770000000     0.188300000000     0.698300000000    -0.151555   
N18      N      0.393430000000     0.205010000000     0.738980000000    -0.150731   
N19      N      0.816580000000     0.327610000000     0.178570000000    -0.150791   
N20      N      0.825670000000     0.377500000000     0.112130000000    -0.151423   
N21      N      0.199550000000     0.662900000000     0.023270000000    -0.151786   
N22      N      0.205070000000     0.707780000000     0.950110000000    -0.150771   
N23      N      0.981680000000     0.494230000000     0.045520000000    -0.150881   
N24      N      0.043530000000     0.545470000000     0.069000000000    -0.151192   
N25      N      0.520350000000     0.693480000000     0.878040000000    -0.151964   
N26      N      0.494510000000     0.652310000000     0.795800000000    -0.150094   
N27      N      0.887320000000     0.062220000000     0.043460000000    -0.149617   
N28      N      0.869640000000     0.020720000000     0.961570000000    -0.150873   
N29      N      0.670010000000     0.831030000000     0.915810000000    -0.151456   
N30      N      0.735810000000     0.874690000000     0.931210000000    -0.150905   
N31      N      0.521670000000     0.192650000000     0.824450000000    -0.150775   
N32      N      0.540410000000     0.150710000000     0.865030000000    -0.152017   
N33      N      0.484300000000     0.883670000000     0.278240000000    -0.152412   
N34      N      0.505360000000     0.843730000000     0.319120000000    -0.150229   
N35      N      0.481800000000     0.839800000000     0.036230000000    -0.151203   
N36      N      0.531580000000     0.834250000000     0.992920000000    -0.151326   
N37      N      0.464720000000     0.973800000000     0.095470000000    -0.150997   
N38      N      0.511780000000     0.036550000000     0.063930000000    -0.15123    
N39      N      0.172490000000     0.479870000000     0.205000000000    -0.149862   
N40      N      0.151400000000     0.497350000000     0.121020000000    -0.151734   
N41      N      0.191840000000     0.177280000000     0.628350000000    -0.150969   
N42      N      0.164550000000     0.214970000000     0.602230000000    -0.152256   
N43      N      0.153300000000     0.370840000000     0.402930000000    -0.151424   
N44      N      0.140870000000     0.308380000000     0.432210000000    -0.150874   
N45      N      0.147210000000     0.680190000000     0.636530000000    -0.152328   
N46      N      0.178120000000     0.724340000000     0.713740000000    -0.150298   
N47      N      0.190090000000     0.528580000000     0.446940000000    -0.150826   
N48      N      0.184740000000     0.572570000000     0.510500000000    -0.151168   
N49      N      0.822760000000     0.314040000000     0.419640000000    -0.149925   
N50      N      0.841890000000     0.359640000000     0.496730000000    -0.151974   
N51      N      0.027230000000     0.521920000000     0.577360000000    -0.151413   
N52      N      0.968520000000     0.513380000000     0.545080000000    -0.151354   
N53      N      0.492890000000     0.337040000000     0.328730000000    -0.150585   
N54      N      0.510620000000     0.398940000000     0.367150000000    -0.151511   
N55      N      0.519640000000     0.236930000000     0.152540000000    -0.151919   
N56      N      0.531120000000     0.191000000000     0.105490000000    -0.15093    
N57      N      0.169590000000     0.033810000000     0.155860000000    -0.150574   
N58      N      0.146100000000     0.971280000000     0.115650000000    -0.151834   
N59      N      0.109250000000     0.150940000000     0.377290000000    -0.151403   
N60      N      0.152660000000     0.149650000000     0.309810000000    -0.151179   
N61      N      0.305220000000     0.181430000000     0.236630000000    -0.151113   
N62      N      0.367720000000     0.191990000000     0.242840000000    -0.150682   
N63      N      0.860010000000     0.522030000000     0.974250000000    -0.152642   
N64      N      0.827300000000     0.534110000000     0.899470000000    -0.150535   
N65      N      0.777790000000     0.498280000000     0.661710000000    -0.152056   
N66      N      0.819530000000     0.487840000000     0.602520000000    -0.150797   
N67      N      0.862190000000     0.830400000000     0.554130000000    -0.150639   
N68      N      0.825640000000     0.839230000000     0.482260000000    -0.152306   
N69      N      0.914760000000     0.869240000000     0.789130000000    -0.152015   
N70      N      0.875000000000     0.883140000000     0.847150000000    -0.151346   
N71      N      0.826370000000     0.655490000000     0.749500000000    -0.150999   
N72      N      0.870540000000     0.712910000000     0.699460000000    -0.151055   
N73      N      0.009060000000     0.181830000000     0.162220000000    -0.149858   
N74      N      0.069350000000     0.221920000000     0.121710000000    -0.151603   
N75      N      0.175140000000     0.204820000000     0.990590000000    -0.151933   
N76      N      0.192320000000     0.177640000000     0.068120000000    -0.14988    
N77      N      0.359660000000     0.529760000000     0.709070000000    -0.150456   
N78      N      0.296640000000     0.486380000000     0.738590000000    -0.152133   
N79      N      0.177870000000     0.518170000000     0.794630000000    -0.150602   
N80      N      0.140260000000     0.541840000000     0.753540000000    -0.151854   
N81      N      0.130840000000     0.312840000000     0.896840000000    -0.151634   
N82      N      0.176790000000     0.379960000000     0.893800000000    -0.150615   
N83      N      0.701760000000     0.192890000000     0.932230000000    -0.150056   
N84      N      0.660150000000     0.170180000000     0.013110000000    -0.151727   
N85      N      0.824460000000     0.326810000000     0.836060000000    -0.150375   
N86      N      0.866260000000     0.391020000000     0.868440000000    -0.151679   
N87      N      0.005220000000     0.171130000000     0.541630000000    -0.150887   
N88      N      0.942540000000     0.145010000000     0.576880000000    -0.151887   
N89      N      0.817510000000     0.956920000000     0.605250000000    -0.149652   
N90      N      0.835810000000     0.994630000000     0.691850000000    -0.151884   
N91      N      0.016920000000     0.146220000000     0.889590000000    -0.151982   
N92      N      0.968290000000     0.131010000000     0.819630000000    -0.151096   
N93      N      0.831500000000     0.135960000000     0.742440000000    -0.150897   
N94      N      0.814710000000     0.182780000000     0.768270000000    -0.151231   
N95      N      0.390230000000     0.877450000000     0.772110000000    -0.151661   
N96      N      0.326430000000     0.841340000000     0.803630000000    -0.150854   
N97      N      0.512180000000     0.847620000000     0.709050000000    -0.150725   
N98      N      0.555360000000     0.829790000000     0.745670000000    -0.151861   
N99      N      0.636320000000     0.140930000000     0.368490000000    -0.151419   
N100     N      0.697830000000     0.183390000000     0.330750000000    -0.150378   
N101     N      0.510200000000     0.158840000000     0.454480000000    -0.151819   
N102     N      0.492650000000     0.191100000000     0.384800000000    -0.150898   
N103     N      0.688880000000     0.198350000000     0.683880000000    -0.150834   
N104     N      0.639450000000     0.185670000000     0.616490000000    -0.151849   
N105     N      0.521910000000     0.030270000000     0.539900000000    -0.151088   
N106     N      0.503690000000     0.974120000000     0.597970000000    -0.150634   
N107     N      0.071240000000     0.857300000000     0.577430000000    -0.152263   
N108     N      0.009970000000     0.842580000000     0.607500000000    -0.150986   
N109     N      0.212860000000     0.004170000000     0.487280000000    -0.152586   
N110     N      0.222990000000     0.051640000000     0.558160000000    -0.150736   
N111     N      0.299730000000     0.791140000000     0.229570000000    -0.149687   
N112     N      0.337730000000     0.817080000000     0.145160000000    -0.152338   
N113     N      0.191140000000     0.654470000000     0.352140000000    -0.152445   
N114     N      0.168190000000     0.620940000000     0.262470000000    -0.149707   
N115     N      0.329560000000     0.796410000000     0.476810000000    -0.151083   
N116     N      0.383190000000     0.814180000000     0.537540000000    -0.151683   
N117     N      0.194510000000     0.798860000000     0.403930000000    -0.15111    
N118     N      0.183180000000     0.850350000000     0.424500000000    -0.150662   
N119     N      0.721770000000     0.555160000000     0.433080000000    -0.152078   
N120     N      0.657730000000     0.513480000000     0.458660000000    -0.150806   
N121     N      0.855870000000     0.487670000000     0.354970000000    -0.151856   
N122     N      0.822990000000     0.518130000000     0.320770000000    -0.150368   
N123     N      0.986460000000     0.841130000000     0.046580000000    -0.149924   
N124     N      0.028530000000     0.861820000000     0.966700000000    -0.151564   
N125     N      0.884410000000     0.871530000000     0.176390000000    -0.151732   
N126     N      0.863060000000     0.891790000000     0.094660000000    -0.150008   
N127     N      0.076730000000     0.905180000000     0.344930000000    -0.151355   
N128     N      0.020950000000     0.868440000000     0.288310000000    -0.151074   
N129     N      0.827610000000     0.665380000000     0.252700000000    -0.151241   
N130     N      0.882430000000     0.725490000000     0.228630000000    -0.151356   
N131     N      0.685830000000     0.528530000000     0.848430000000    -0.150706   
N132     N      0.626830000000     0.511640000000     0.891880000000    -0.151746   
N133     N      0.507250000000     0.359630000000     0.984040000000    -0.15247    
N134     N      0.501140000000     0.319930000000     0.903060000000    -0.150387   
N135     N      0.639880000000     0.473480000000     0.131300000000    -0.151628   
N136     N      0.692300000000     0.517550000000     0.189420000000    -0.151141   
N137     N      0.304290000000     0.499900000000     0.316230000000    -0.150579   
N138     N      0.367040000000     0.522270000000     0.284770000000    -0.151459   
N139     N      0.489200000000     0.655450000000     0.180350000000    -0.151752   
N140     N      0.507130000000     0.703070000000     0.254860000000    -0.150827   
N141     N      0.292420000000     0.534800000000     0.981010000000    -0.152019   
N142     N      0.341650000000     0.540750000000     0.043200000000    -0.150712   
N143     N      0.462690000000     0.508380000000     0.087810000000    -0.151481   
N144     N      0.516460000000     0.502130000000     0.070630000000    -0.151083   
O1       O      0.394650000000     0.567970000000     0.068850000000    -0.245319   
O2       O      0.385180000000     0.514480000000     0.209420000000    -0.242081   
O3       O      0.440330000000     0.617830000000     0.145870000000    -0.247003   
O4       O      0.444060000000     0.544610000000     0.081160000000    -0.251425   
O5       O      0.435890000000     0.518390000000     0.150190000000    -0.246053   
O6       O      0.468230000000     0.599310000000     0.180610000000    -0.25228    
O7       O      0.359550000000     0.530630000000     0.117030000000    -0.251774   
O8       O      0.396800000000     0.563760000000     0.228590000000    -0.251014   
O9       O      0.623000000000     0.466530000000     0.049470000000    -0.249521   
O10      O      0.548170000000     0.496270000000     0.011950000000    -0.247972   
O11      O      0.553510000000     0.400950000000     0.020220000000    -0.251757   
O12      O      0.611300000000     0.509860000000     0.973650000000    -0.247753   
O13      O      0.588520000000     0.464620000000     0.931670000000    -0.250681   
O14      O      0.521980000000     0.414350000000     0.984250000000    -0.252395   
O15      O      0.591460000000     0.466960000000     0.105680000000    -0.246854   
O16      O      0.537750000000     0.468360000000     0.079810000000    -0.245659   
O17      O      0.932850000000     0.873810000000     0.188000000000    -0.246571   
O18      O      0.906780000000     0.766950000000     0.170330000000    -0.247466   
O19      O      0.968870000000     0.853640000000     0.267230000000    -0.246721   
O20      O      0.957320000000     0.851380000000     0.104490000000    -0.250194   
O21      O      0.968500000000     0.813600000000     0.121280000000    -0.24264    
O22      O      0.996690000000     0.844580000000     0.213850000000    -0.251147   
O23      O      0.890310000000     0.826020000000     0.180430000000    -0.251877   
O24      O      0.913570000000     0.780640000000     0.247830000000    -0.250905   
O25      O      0.745410000000     0.539580000000     0.212600000000    -0.246484   
O26      O      0.802900000000     0.624220000000     0.311310000000    -0.247349   
O27      O      0.776210000000     0.516980000000     0.299170000000    -0.248068   
O28      O      0.750890000000     0.542380000000     0.379070000000    -0.250883   
O29      O      0.739990000000     0.579490000000     0.356320000000    -0.244481   
O30      O      0.818670000000     0.564330000000     0.310520000000    -0.251367   
O31      O      0.712650000000     0.540190000000     0.266340000000    -0.251898   
O32      O      0.796740000000     0.610090000000     0.234040000000    -0.249917   
O33      O      0.241330000000     0.700280000000     0.363730000000    -0.246727   
O34      O      0.274790000000     0.796540000000     0.299250000000    -0.242542   
O35      O      0.277680000000     0.758600000000     0.452310000000    -0.247595   
O36      O      0.225710000000     0.776790000000     0.427070000000    -0.24966    
O37      O      0.219670000000     0.781780000000     0.348620000000    -0.243611   
O38      O      0.308180000000     0.795930000000     0.399880000000    -0.25291    
O39      O      0.200460000000     0.706980000000     0.363990000000    -0.252339   
O40      O      0.277800000000     0.752620000000     0.292530000000    -0.247761   
O41      O      0.166010000000     0.966020000000     0.448550000000    -0.252553   
O42      O      0.163530000000     0.873200000000     0.479970000000    -0.247862   
O43      O      0.119760000000     0.900830000000     0.372250000000    -0.242463   
O44      O      0.093180000000     0.857630000000     0.501050000000    -0.252167   
O45      O      0.114340000000     0.903090000000     0.542310000000    -0.250042   
O46      O      0.092590000000     0.910080000000     0.426990000000    -0.249235   
O47      O      0.188700000000     0.948090000000     0.497920000000    -0.250977   
O48      O      0.158670000000     0.879610000000     0.401710000000    -0.244261   
O49      O      0.556380000000     0.168150000000     0.494540000000    -0.249919   
O50      O      0.562680000000     0.071650000000     0.493430000000    -0.245726   
O51      O      0.627020000000     0.178320000000     0.532580000000    -0.250614   
O52      O      0.617490000000     0.122110000000     0.447770000000    -0.246      
O53      O      0.599120000000     0.149340000000     0.409590000000    -0.250035   
O54      O      0.593970000000     0.141510000000     0.583400000000    -0.251006   
O55      O      0.529800000000     0.123320000000     0.452510000000    -0.24971    
O56      O      0.535650000000     0.084730000000     0.542480000000    -0.246606   
O57      O      0.429430000000     0.860440000000     0.564400000000    -0.250997   
O58      O      0.464150000000     0.934580000000     0.647980000000    -0.244788   
O59      O      0.465880000000     0.836470000000     0.667340000000    -0.249335   
O60      O      0.410850000000     0.891270000000     0.692630000000    -0.245223   
O61      O      0.424620000000     0.862460000000     0.737240000000    -0.249856   
O62      O      0.497010000000     0.885930000000     0.693270000000    -0.250371   
O63      O      0.398490000000     0.826170000000     0.619860000000    -0.250727   
O64      O      0.489300000000     0.919290000000     0.598490000000    -0.244285   
O65      O      0.915150000000     0.110530000000     0.797800000000    -0.246609   
O66      O      0.862050000000     0.124640000000     0.689060000000    -0.246721   
O67      O      0.884260000000     0.041820000000     0.707680000000    -0.250535   
O68      O      0.911030000000     0.098910000000     0.624550000000    -0.249641   
O69      O      0.925030000000     0.146360000000     0.656240000000    -0.246753   
O70      O      0.842500000000     0.046420000000     0.698550000000    -0.253347   
O71      O      0.948730000000     0.118170000000     0.739490000000    -0.251533   
O72      O      0.860970000000     0.112130000000     0.766560000000    -0.244645   
O73      O      0.776670000000     0.286270000000     0.801780000000    -0.245621   
O74      O      0.785580000000     0.195990000000     0.821780000000    -0.245243   
O75      O      0.739780000000     0.232420000000     0.716080000000    -0.24574    
O76      O      0.733330000000     0.233410000000     0.875800000000    -0.250446   
O77      O      0.725870000000     0.184810000000     0.863760000000    -0.242403   
O78      O      0.704970000000     0.193470000000     0.762610000000    -0.252282   
O79      O      0.809840000000     0.272250000000     0.829650000000    -0.252293   
O80      O      0.788880000000     0.210590000000     0.744990000000    -0.251054   
O81      O      0.282510000000     0.527280000000     0.896610000000    -0.250974   
O82      O      0.275960000000     0.471730000000     0.817890000000    -0.245624   
O83      O      0.220920000000     0.524350000000     0.840870000000    -0.249199   
O84      O      0.189290000000     0.434150000000     0.898500000000    -0.245046   
O85      O      0.219240000000     0.422980000000     0.852830000000    -0.246993   
O86      O      0.187860000000     0.476240000000     0.811750000000    -0.249595   
O87      O      0.246430000000     0.492130000000     0.946110000000    -0.251464   
O88      O      0.257640000000     0.495540000000     0.770890000000    -0.250815   
O89      O      0.123630000000     0.188500000000     0.964940000000    -0.247621   
O90      O      0.076980000000     0.240210000000     0.040530000000    -0.243249   
O91      O      0.039070000000     0.178580000000     0.959410000000    -0.252297   
O92      O      0.129470000000     0.263750000000     0.909110000000    -0.24992    
O93      O      0.098590000000     0.273580000000     0.954420000000    -0.245884   
O94      O      0.070550000000     0.185180000000     0.898410000000    -0.249862   
O95      O      0.152080000000     0.237190000000     0.996010000000    -0.249921   
O96      O      0.089440000000     0.203640000000     0.059530000000    -0.249874   
O97      O      0.922060000000     0.864100000000     0.705430000000    -0.250146   
O98      O      0.875450000000     0.756590000000     0.653650000000    -0.246445   
O99      O      0.976050000000     0.850970000000     0.657990000000    -0.249834   
O100     O      0.909790000000     0.836500000000     0.583740000000    -0.249204   
O101     O      0.867140000000     0.808420000000     0.628000000000    -0.247365   
O102     O      0.955240000000     0.807220000000     0.612890000000    -0.251232   
O103     O      0.911710000000     0.823290000000     0.753230000000    -0.249687   
O104     O      0.910720000000     0.766940000000     0.710740000000    -0.246157   
O105     O      0.778880000000     0.543500000000     0.696840000000    -0.249264   
O106     O      0.825560000000     0.557970000000     0.825330000000    -0.245864   
O107     O      0.717710000000     0.519160000000     0.794600000000    -0.249753   
O108     O      0.784750000000     0.602000000000     0.739920000000    -0.246394   
O109     O      0.820530000000     0.611520000000     0.795710000000    -0.246263   
O110     O      0.740430000000     0.563160000000     0.839150000000    -0.25093    
O111     O      0.773460000000     0.504990000000     0.745880000000    -0.250829   
O112     O      0.781540000000     0.530670000000     0.866860000000    -0.249554   
O113     O      0.184650000000     0.129100000000     0.283320000000    -0.247751   
O114     O      0.186970000000     0.132990000000     0.111780000000    -0.248725   
O115     O      0.162960000000     0.075970000000     0.185400000000    -0.249055   
O116     O      0.251440000000     0.146090000000     0.253410000000    -0.247604   
O117     O      0.263930000000     0.171170000000     0.182810000000    -0.248022   
O118     O      0.211150000000     0.086600000000     0.171070000000    -0.251805   
O119     O      0.171290000000     0.153830000000     0.229670000000    -0.251417   
O120     O      0.214310000000     0.180920000000     0.145740000000    -0.241562   
O121     O      0.501620000000     0.301920000000     0.280020000000    -0.249153   
O122     O      0.465780000000     0.191890000000     0.314120000000    -0.249386   
O123     O      0.515840000000     0.247990000000     0.235060000000    -0.249668   
O124     O      0.420990000000     0.228920000000     0.225720000000    -0.244944   
O125     O      0.409930000000     0.201670000000     0.294490000000    -0.246268   
O126     O      0.474450000000     0.233020000000     0.188500000000    -0.245895   
O127     O      0.458930000000     0.280820000000     0.325120000000    -0.251835   
O128     O      0.491600000000     0.236710000000     0.356400000000    -0.250257   
O129     O      0.830990000000     0.401690000000     0.504790000000    -0.247238   
O130     O      0.928720000000     0.488830000000     0.485810000000    -0.244706   
O131     O      0.846570000000     0.494220000000     0.528620000000    -0.251483   
O132     O      0.841800000000     0.450720000000     0.419780000000    -0.251225   
O133     O      0.884080000000     0.498560000000     0.428480000000    -0.245817   
O134     O      0.840590000000     0.455640000000     0.578150000000    -0.246489   
O135     O      0.880240000000     0.414770000000     0.494010000000    -0.252236   
O136     O      0.914260000000     0.488180000000     0.561910000000    -0.250692   
O137     O      0.168500000000     0.571230000000     0.591670000000    -0.250452   
O138     O      0.067070000000     0.549790000000     0.635610000000    -0.246459   
O139     O      0.113680000000     0.624240000000     0.645280000000    -0.252071   
O140     O      0.116880000000     0.536300000000     0.676620000000    -0.249252   
O141     O      0.149600000000     0.585400000000     0.702930000000    -0.25014    
O142     O      0.159460000000     0.641330000000     0.610120000000    -0.250814   
O143     O      0.144420000000     0.582380000000     0.534040000000    -0.242993   
O144     O      0.081450000000     0.550170000000     0.559600000000    -0.247194   
O145     O      0.097060000000     0.190040000000     0.402910000000    -0.244441   
O146     O      0.113900000000     0.199160000000     0.572630000000    -0.249879   
O147     O      0.057130000000     0.214040000000     0.530050000000    -0.251434   
O148     O      0.111250000000     0.251910000000     0.422950000000    -0.245525   
O149     O      0.130410000000     0.271260000000     0.495570000000    -0.247469   
O150     O      0.044610000000     0.166880000000     0.499540000000    -0.251416   
O151     O      0.112340000000     0.168010000000     0.458630000000    -0.249848   
O152     O      0.154310000000     0.227730000000     0.524170000000    -0.24892    
O153     O      0.211740000000     0.496300000000     0.426410000000    -0.245555   
O154     O      0.169890000000     0.408280000000     0.338370000000    -0.247645   
O155     O      0.250850000000     0.459590000000     0.323090000000    -0.251346   
O156     O      0.164010000000     0.458640000000     0.284700000000    -0.242946   
O157     O      0.212950000000     0.488340000000     0.259300000000    -0.250392   
O158     O      0.264250000000     0.509100000000     0.343620000000    -0.248887   
O159     O      0.185460000000     0.505030000000     0.369750000000    -0.250509   
O160     O      0.188430000000     0.426560000000     0.411600000000    -0.249657   
O161     O      0.465610000000     0.876350000000     0.058990000000    -0.246461   
O162     O      0.486040000000     0.895590000000     0.194720000000    -0.25174    
O163     O      0.388180000000     0.823940000000     0.135030000000    -0.250256   
O164     O      0.446490000000     0.919210000000     0.078020000000    -0.242948   
O165     O      0.458110000000     0.935220000000     0.154360000000    -0.247764   
O166     O      0.384680000000     0.867320000000     0.144190000000    -0.252061   
O167     O      0.456770000000     0.837740000000     0.110530000000    -0.248378   
O168     O      0.439510000000     0.866800000000     0.228910000000    -0.251498   
O169     O      0.564990000000     0.171390000000     0.086400000000    -0.246327   
O170     O      0.530220000000     0.076190000000     0.002560000000    -0.246997   
O171     O      0.607070000000     0.128860000000     0.008740000000    -0.251252   
O172     O      0.525250000000     0.124860000000     0.941280000000    -0.244895   
O173     O      0.574980000000     0.161890000000     0.931050000000    -0.252002   
O174     O      0.617270000000     0.178280000000     0.022830000000    -0.245376   
O175     O      0.524700000000     0.157860000000     0.038010000000    -0.251644   
O176     O      0.539560000000     0.092530000000     0.078790000000    -0.251389   
O177     O      0.878120000000     0.977000000000     0.952750000000    -0.244651   
O178     O      0.827850000000     0.881240000000     0.029630000000    -0.244699   
O179     O      0.862320000000     0.921150000000     0.877040000000    -0.247086   
O180     O      0.787960000000     0.894400000000     0.904980000000    -0.250566   
O181     O      0.779570000000     0.894570000000     0.983810000000    -0.24463    
O182     O      0.850430000000     0.878940000000     0.922570000000    -0.252344   
O183     O      0.829660000000     0.966280000000     0.964920000000    -0.251683   
O184     O      0.870730000000     0.928980000000     0.032540000000    -0.249831   
O185     O      0.522660000000     0.743090000000     0.889270000000    -0.247498   
O186     O      0.627410000000     0.816020000000     0.862320000000    -0.249196   
O187     O      0.556220000000     0.837140000000     0.918030000000    -0.250049   
O188     O      0.547210000000     0.789270000000     0.801850000000    -0.251295   
O189     O      0.580830000000     0.839570000000     0.821710000000    -0.244995   
O190     O      0.546220000000     0.796940000000     0.967010000000    -0.246553   
O191     O      0.567240000000     0.743830000000     0.878430000000    -0.251102   
O192     O      0.618550000000     0.815740000000     0.940910000000    -0.250839   
O193     O      0.169650000000     0.551760000000     0.102430000000    -0.246099   
O194     O      0.082560000000     0.562480000000     0.129780000000    -0.244248   
O195     O      0.171320000000     0.607180000000     0.039950000000    -0.245091   
O196     O      0.174040000000     0.596860000000     0.191470000000    -0.250157   
O197     O      0.133610000000     0.604350000000     0.195200000000    -0.242253   
O198     O      0.170360000000     0.639930000000     0.094890000000    -0.252807   
O199     O      0.121390000000     0.522410000000     0.130410000000    -0.254123   
O200     O      0.097030000000     0.564000000000     0.053490000000    -0.2511     
O201     O      0.840190000000     0.392570000000     0.030160000000    -0.250368   
O202     O      0.941760000000     0.471870000000     0.985860000000    -0.245685   
O203     O      0.849260000000     0.472520000000     0.008060000000    -0.252187   
O204     O      0.891030000000     0.410580000000     0.944420000000    -0.246716   
O205     O      0.858530000000     0.426150000000     0.918550000000    -0.250337   
O206     O      0.893720000000     0.500960000000     0.968380000000    -0.253341   
O207     O      0.865710000000     0.428880000000     0.086870000000    -0.244284   
O208     O      0.927570000000     0.470970000000     0.062060000000    -0.246273   
O209     O      0.189460000000     0.074360000000     0.711920000000    -0.248209   
O210     O      0.292640000000     0.147990000000     0.651440000000    -0.249559   
O211     O      0.193410000000     0.136990000000     0.674860000000    -0.250058   
O212     O      0.217950000000     0.094900000000     0.587060000000    -0.249271   
O213     O      0.241560000000     0.076740000000     0.634400000000    -0.249462   
O214     O      0.232230000000     0.164910000000     0.623760000000    -0.25071    
O215     O      0.231080000000     0.103590000000     0.757670000000    -0.246991   
O216     O      0.280010000000     0.164330000000     0.718110000000    -0.247333   
O217     O      0.532320000000     0.242550000000     0.791980000000    -0.249708   
O218     O      0.434670000000     0.239380000000     0.791660000000    -0.245835   
O219     O      0.505940000000     0.275380000000     0.689960000000    -0.248429   
O220     O      0.510750000000     0.282500000000     0.862860000000    -0.249401   
O221     O      0.481620000000     0.298490000000     0.825110000000    -0.244998   
O222     O      0.535160000000     0.312530000000     0.743480000000    -0.251515   
O223     O      0.483190000000     0.206600000000     0.808720000000    -0.252598   
O224     O      0.447030000000     0.223760000000     0.723950000000    -0.244464   
O225     O      0.284690000000     0.798190000000     0.845940000000    -0.250963   
O226     O      0.196180000000     0.809970000000     0.828500000000    -0.247476   
O227     O      0.215890000000     0.727220000000     0.869410000000    -0.249284   
O228     O      0.224100000000     0.761510000000     0.755450000000    -0.249446   
O229     O      0.178670000000     0.744490000000     0.792340000000    -0.246405   
O230     O      0.217680000000     0.760080000000     0.926590000000    -0.24565    
O231     O      0.273930000000     0.829590000000     0.802140000000    -0.251556   
O232     O      0.219060000000     0.816900000000     0.899890000000    -0.24629    
O233     O      0.120230000000     0.967340000000     0.895660000000    -0.246576   
O234     O      0.163900000000     0.915710000000     0.971900000000    -0.245594   
O235     O      0.082510000000     0.879810000000     0.974930000000    -0.251822   
O236     O      0.160630000000     0.958810000000     0.040670000000    -0.243474   
O237     O      0.112220000000     0.949200000000     0.048090000000    -0.251041   
O238     O      0.069000000000     0.915560000000     0.955640000000    -0.24469    
O239     O      0.160980000000     0.996080000000     0.943010000000    -0.253178   
O240     O      0.144880000000     0.913860000000     0.898700000000    -0.25143    
O241     O      0.537140000000     0.392640000000     0.525550000000    -0.250366   
O242     O      0.556770000000     0.434570000000     0.410090000000    -0.249922   
O243     O      0.616220000000     0.464590000000     0.489400000000    -0.249697   
O244     O      0.552590000000     0.482290000000     0.565090000000    -0.249293   
O245     O      0.528080000000     0.478330000000     0.496320000000    -0.248408   
O246     O      0.605480000000     0.501830000000     0.467020000000    -0.251143   
O247     O      0.567640000000     0.429400000000     0.578730000000    -0.245486   
O248     O      0.511500000000     0.414550000000     0.448810000000    -0.243798   
O249     O      0.397750000000     0.573520000000     0.662780000000    -0.243496   
O250     O      0.454310000000     0.624780000000     0.737950000000    -0.251861   
O251     O      0.445450000000     0.621030000000     0.593070000000    -0.243921   
O252     O      0.459550000000     0.558790000000     0.601090000000    -0.253374   
O253     O      0.485220000000     0.564080000000     0.669260000000    -0.245603   
O254     O      0.493620000000     0.646400000000     0.622280000000    -0.252484   
O255     O      0.413710000000     0.547390000000     0.709510000000    -0.252122   
O256     O      0.497780000000     0.622970000000     0.729380000000    -0.242712   
O257     O      0.969180000000     0.130840000000     0.189260000000    -0.246679   
O258     O      0.873560000000     0.130220000000     0.171190000000    -0.245205   
O259     O      0.912700000000     0.086100000000     0.266800000000    -0.246531   
O260     O      0.874180000000     0.080360000000     0.114670000000    -0.241375   
O261     O      0.923310000000     0.092230000000     0.105600000000    -0.248666   
O262     O      0.885240000000     0.051150000000     0.209490000000    -0.25256    
O263     O      0.955150000000     0.165110000000     0.163920000000    -0.252028   
O264     O      0.892770000000     0.136230000000     0.245310000000    -0.249465   
O265     O      0.734610000000     0.229520000000     0.286980000000    -0.246613   
O266     O      0.833300000000     0.289130000000     0.354020000000    -0.241076   
O267     O      0.788640000000     0.273460000000     0.205410000000    -0.244796   
O268     O      0.809950000000     0.224800000000     0.231280000000    -0.250893   
O269     O      0.830390000000     0.232550000000     0.304760000000    -0.245289   
O270     O      0.820330000000     0.310550000000     0.257310000000    -0.251976   
O271     O      0.752230000000     0.202580000000     0.327890000000    -0.252338   
O272     O      0.784690000000     0.278830000000     0.363610000000    -0.250183   
O273     O      0.833340000000     0.966420000000     0.436370000000    -0.253019   
O274     O      0.827070000000     0.930170000000     0.541510000000    -0.248875   
O275     O      0.790260000000     0.857710000000     0.494670000000    -0.251765   
O276     O      0.747770000000     0.867700000000     0.419020000000    -0.247498   
O277     O      0.739980000000     0.897650000000     0.471180000000    -0.244068   
O278     O      0.831920000000     0.887270000000     0.449030000000    -0.249795   
O279     O      0.809900000000     0.931310000000     0.377640000000    -0.250917   
O280     O      0.785390000000     0.935470000000     0.535590000000    -0.241287   
O281     O      0.537780000000     0.764220000000     0.454770000000    -0.251636   
O282     O      0.591760000000     0.793610000000     0.348780000000    -0.246318   
O283     O      0.497980000000     0.798840000000     0.364670000000    -0.246213   
O284     O      0.509040000000     0.749110000000     0.288140000000    -0.251477   
O285     O      0.534880000000     0.729570000000     0.326330000000    -0.24867    
O286     O      0.541800000000     0.825960000000     0.322660000000    -0.249558   
O287     O      0.490720000000     0.739080000000     0.421930000000    -0.249415   
O288     O      0.584380000000     0.823690000000     0.401560000000    -0.245309   


