data_structure

_audit_creation_method RASPA-1.0
_audit_creation_date 2023-5-22
_audit_author_name 'Poobodin Mano'

_cell_length_a    35.3264
_cell_length_b    27.0119
_cell_length_c    29.2747
_cell_angle_alpha 90.0014
_cell_angle_beta  89.9993
_cell_angle_gamma 90
_cell_volume      27934.9

_symmetry_cell_setting          triclinic
_symmetry_space_group_name_Hall 'P 1'
_symmetry_space_group_name_H-M  'P 1'
_symmetry_Int_Tables_number     1

_symmetry_equiv_pos_as_xyz 'x,y,z'

loop_
_atom_site_label
_atom_site_type_symbol
_atom_site_fract_x
_atom_site_fract_y
_atom_site_fract_z
_atom_site_charge
C1       C      0.475490000000     0.092020000000     0.273970000000     0.342106   
C2       C      0.373020000000     0.182600000000     0.207980000000     0.343571   
C3       C      0.411430000000     0.035480000000     0.142290000000     0.340904   
C4       C      0.350690000000     0.033110000000     0.287400000000     0.340911   
C5       C      0.218780000000     0.975850000000     0.363840000000     0.3387     
C6       C      0.125570000000     0.845690000000     0.421470000000     0.340547   
C7       C      0.166500000000     0.975880000000     0.503230000000     0.339491   
C8       C      0.089670000000     0.991700000000     0.358900000000     0.337798   
C9       C      0.288440000000     0.196180000000     0.737240000000     0.342159   
C10      C      0.196550000000     0.083720000000     0.792780000000     0.337176   
C11      C      0.236610000000     0.055550000000     0.649070000000     0.340611   
C12      C      0.327970000000     0.037700000000     0.763110000000     0.337963   
C13      C      0.952590000000     0.951860000000     0.827650000000     0.340044   
C14      C      0.052320000000     0.861690000000     0.890620000000     0.3398     
C15      C      0.072260000000     0.028700000000     0.879260000000     0.341078   
C16      C      0.974950000000     0.984510000000     0.976330000000     0.340196   
C17      C      0.374070000000     0.362410000000     0.741510000000     0.339143   
C18      C      0.473180000000     0.449560000000     0.802990000000     0.341286   
C19      C      0.445810000000     0.488490000000     0.654420000000     0.339084   
C20      C      0.352200000000     0.530630000000     0.753440000000     0.341665   
C21      C      0.138270000000     0.696340000000     0.887470000000     0.339655   
C22      C      0.227180000000     0.584420000000     0.839390000000     0.339062   
C23      C      0.182970000000     0.554780000000     0.983150000000     0.339751   
C24      C      0.093100000000     0.536850000000     0.872760000000     0.339309   
C25      C      0.063680000000     0.663110000000     0.405120000000     0.342311   
C26      C      0.461440000000     0.565330000000     0.353850000000     0.339432   
C27      C      0.090170000000     0.493970000000     0.379590000000     0.341316   
C28      C      0.021100000000     0.532610000000     0.506630000000     0.342994   
C29      C      0.312290000000     0.365230000000     0.225330000000     0.342298   
C30      C      0.213010000000     0.463710000000     0.280860000000     0.338607   
C31      C      0.334610000000     0.532020000000     0.261470000000     0.339149   
C32      C      0.258340000000     0.500790000000     0.135450000000     0.343898   
C33      C      0.184700000000     0.478660000000     0.356470000000    -0.0151604  
C34      C      0.143460000000     0.465400000000     0.285690000000    -0.0148099  
C35      C      0.153410000000     0.454820000000     0.385150000000    -0.0122657  
C36      C      0.113730000000     0.441370000000     0.316490000000    -0.0125442  
C37      C      0.395890000000     0.576270000000     0.255580000000    -0.0127266  
C38      C      0.359570000000     0.578010000000     0.328120000000    -0.0130209  
C39      C      0.429920000000     0.552700000000     0.279590000000    -0.0149681  
C40      C      0.392270000000     0.553690000000     0.353940000000    -0.0145954  
C41      C      0.194240000000     0.568710000000     0.065670000000    -0.0141717  
C42      C      0.208480000000     0.486080000000     0.030190000000    -0.014162   
C43      C      0.233490000000     0.569190000000     0.087710000000    -0.0135305  
C44      C      0.247610000000     0.486300000000     0.052780000000    -0.0137757  
C45      C      0.501570000000     0.471000000000     0.550960000000    -0.0129236  
C46      C      0.012090000000     0.553690000000     0.588430000000    -0.0134514  
C47      C      0.463280000000     0.467860000000     0.575010000000    -0.0145724  
C48      C      0.972690000000     0.552430000000     0.610380000000    -0.014526   
C49      C      0.326090000000     0.601050000000     0.797650000000    -0.0127054  
C50      C      0.287490000000     0.561260000000     0.737320000000    -0.0125951  
C51      C      0.296600000000     0.588500000000     0.834160000000    -0.0150017  
C52      C      0.256870000000     0.547020000000     0.771780000000    -0.0149715  
C53      C      0.996750000000     0.482250000000     0.882470000000    -0.0123342  
C54      C      0.034620000000     0.434060000000     0.826890000000    -0.0127354  
C55      C      0.024070000000     0.526120000000     0.879280000000    -0.0152451  
C56      C      0.062910000000     0.476470000000     0.821460000000    -0.0149626  
C57      C      0.085710000000     0.795430000000     0.932630000000    -0.0144045  
C58      C      0.073500000000     0.787370000000     0.847930000000    -0.0147792  
C59      C      0.126050000000     0.776740000000     0.925250000000    -0.0134623  
C60      C      0.113650000000     0.766770000000     0.841680000000    -0.0137293  
C61      C      0.312530000000     0.268930000000     0.694890000000    -0.0134234  
C62      C      0.303930000000     0.273140000000     0.779760000000    -0.0139094  
C63      C      0.353050000000     0.287820000000     0.699700000000    -0.0143621  
C64      C      0.344110000000     0.293980000000     0.784950000000    -0.0145259  
C65      C      0.423730000000     0.981240000000     0.758900000000    -0.012998   
C66      C      0.383730000000     0.935120000000     0.813960000000    -0.0126134  
C67      C      0.397100000000     0.025910000000     0.760600000000    -0.0146846  
C68      C      0.355930000000     0.978390000000     0.817370000000    -0.0151678  
C69      C      0.127200000000     0.086890000000     0.798670000000    -0.015132   
C70      C      0.167580000000     0.045830000000     0.860700000000    -0.0149788  
C71      C      0.098040000000     0.099490000000     0.835460000000    -0.0125175  
C72      C      0.136940000000     0.059540000000     0.895400000000    -0.0128591  
C73      C      0.115160000000     0.720490000000     0.382440000000    -0.014124   
C74      C      0.053730000000     0.753330000000     0.413610000000    -0.0138606  
C75      C      0.137050000000     0.755410000000     0.414130000000    -0.0139961  
C76      C      0.075690000000     0.787100000000     0.446020000000    -0.0139377  
C77      C      0.164390000000     0.039610000000     0.564010000000    -0.013434   
C78      C      0.197920000000     0.959270000000     0.577480000000    -0.0139295  
C79      C      0.199960000000     0.068100000000     0.577970000000    -0.0141871  
C80      C      0.233500000000     0.987270000000     0.592590000000    -0.0143784  
C81      C      0.368810000000     0.311370000000     0.230890000000    -0.014366   
C82      C      0.303280000000     0.274400000000     0.226520000000    -0.0142398  
C83      C      0.382840000000     0.272680000000     0.196650000000    -0.0134863  
C84      C      0.317770000000     0.236380000000     0.191980000000    -0.0134155  
C85      C      0.437570000000     0.965870000000     0.096980000000    -0.0132621  
C86      C      0.910150000000     0.056670000000     0.047890000000    -0.0130453  
C87      C      0.473180000000     0.974200000000     0.068130000000    -0.0149856  
C88      C      0.948800000000     0.050780000000     0.025030000000    -0.0144023  
C89      C      0.309770000000     0.960540000000     0.304530000000    -0.0139111  
C90      C      0.311380000000     0.033150000000     0.357260000000    -0.0132871  
C91      C      0.266360000000     0.963260000000     0.302650000000    -0.014862   
C92      C      0.268560000000     0.038890000000     0.353640000000    -0.0141358  
C93      C      0.040640000000     0.039260000000     0.257440000000    -0.0127698  
C94      C      0.018440000000     0.084750000000     0.326460000000    -0.0135178  
C95      C      0.053530000000     0.995680000000     0.286870000000    -0.0154112  
C96      C      0.031350000000     0.042190000000     0.357320000000    -0.0148438  
C97      C      0.974370000000     0.068830000000     0.262140000000     0.341439   
C98      C      0.868480000000     0.172910000000     0.214110000000     0.343405   
C99      C      0.904090000000     0.038740000000     0.130530000000     0.340665   
C100     C      0.848740000000     0.016610000000     0.279750000000     0.340224   
C101     C      0.718690000000     0.974190000000     0.366390000000     0.33932    
C102     C      0.620890000000     0.855070000000     0.419440000000     0.341822   
C103     C      0.663940000000     0.986670000000     0.505610000000     0.340675   
C104     C      0.590610000000     0.011180000000     0.365130000000     0.33849    
C105     C      0.787030000000     0.195840000000     0.746250000000     0.341199   
C106     C      0.696460000000     0.082280000000     0.800440000000     0.337913   
C107     C      0.735250000000     0.057190000000     0.654980000000     0.340536   
C108     C      0.828460000000     0.037010000000     0.765140000000     0.338349   
C109     C      0.450670000000     0.953400000000     0.832710000000     0.340605   
C110     C      0.542760000000     0.856870000000     0.891440000000     0.339564   
C111     C      0.572440000000     0.026300000000     0.887420000000     0.341586   
C112     C      0.479190000000     0.986320000000     0.984650000000     0.338683   
C113     C      0.869830000000     0.365190000000     0.747730000000     0.339315   
C114     C      0.968030000000     0.455290000000     0.809380000000     0.341236   
C115     C      0.943670000000     0.488410000000     0.659830000000     0.339876   
C116     C      0.847470000000     0.533280000000     0.757090000000     0.341332   
C117     C      0.627610000000     0.690450000000     0.902980000000     0.340723   
C118     C      0.723640000000     0.585940000000     0.844980000000     0.337063   
C119     C      0.688260000000     0.554620000000     0.989660000000     0.341939   
C120     C      0.594890000000     0.530760000000     0.876010000000     0.337248   
C121     C      0.560200000000     0.672050000000     0.398320000000     0.34271    
C122     C      0.965270000000     0.556540000000     0.361990000000     0.340197   
C123     C      0.586330000000     0.503840000000     0.369570000000     0.340703   
C124     C      0.517380000000     0.539000000000     0.497550000000     0.343216   
C125     C      0.813560000000     0.359440000000     0.233480000000     0.342945   
C126     C      0.713580000000     0.468110000000     0.279060000000     0.339124   
C127     C      0.838300000000     0.524920000000     0.268630000000     0.338662   
C128     C      0.766100000000     0.492290000000     0.137170000000     0.34346    
C129     C      0.681670000000     0.483480000000     0.352610000000    -0.0149907  
C130     C      0.644400000000     0.479770000000     0.278060000000    -0.0146463  
C131     C      0.647720000000     0.460220000000     0.376950000000    -0.012454   
C132     C      0.611680000000     0.456000000000     0.304280000000    -0.0128476  
C133     C      0.899420000000     0.569820000000     0.264350000000    -0.0128956  
C134     C      0.863260000000     0.567770000000     0.337040000000    -0.0130578  
C135     C      0.933770000000     0.545950000000     0.287430000000    -0.014868   
C136     C      0.896290000000     0.542970000000     0.361810000000    -0.014604   
C137     C      0.713670000000     0.572780000000     0.066630000000    -0.0142184  
C138     C      0.707150000000     0.484610000000     0.039500000000    -0.0143914  
C139     C      0.753650000000     0.561330000000     0.083560000000    -0.0131988  
C140     C      0.747030000000     0.473500000000     0.057440000000    -0.0135629  
C141     C      0.004190000000     0.466570000000     0.561700000000    -0.0128724  
C142     C      0.510920000000     0.557040000000     0.580320000000    -0.0133057  
C143     C      0.964490000000     0.464520000000     0.582300000000    -0.0144357  
C144     C      0.473010000000     0.554400000000     0.605680000000    -0.0145186  
C145     C      0.821410000000     0.604880000000     0.799650000000    -0.0125087  
C146     C      0.782420000000     0.562870000000     0.741110000000    -0.0126192  
C147     C      0.792680000000     0.592860000000     0.837140000000    -0.0150587  
C148     C      0.752260000000     0.549310000000     0.776420000000    -0.0150366  
C149     C      0.500970000000     0.468150000000     0.878780000000    -0.0125201  
C150     C      0.540610000000     0.430730000000     0.818170000000    -0.0126533  
C151     C      0.526610000000     0.513730000000     0.881240000000    -0.0151982  
C152     C      0.567440000000     0.475160000000     0.818330000000    -0.0149881  
C153     C      0.551980000000     0.774280000000     0.926190000000    -0.0138645  
C154     C      0.579970000000     0.793510000000     0.849370000000    -0.0142638  
C155     C      0.590260000000     0.754940000000     0.942500000000    -0.0139518  
C156     C      0.617980000000     0.771680000000     0.864920000000    -0.0142576  
C157     C      0.806310000000     0.271510000000     0.704780000000    -0.0134327  
C158     C      0.804470000000     0.271110000000     0.790320000000    -0.0138962  
C159     C      0.846520000000     0.292020000000     0.705700000000    -0.0143005  
C160     C      0.844190000000     0.294200000000     0.791780000000    -0.014673   
C161     C      0.924240000000     0.981060000000     0.755070000000    -0.013031   
C162     C      0.885720000000     0.932520000000     0.809760000000    -0.0126938  
C163     C      0.897490000000     0.025470000000     0.759110000000    -0.0147802  
C164     C      0.857980000000     0.975470000000     0.815920000000    -0.0151672  
C165     C      0.627370000000     0.088200000000     0.808930000000    -0.0150731  
C166     C      0.667870000000     0.040370000000     0.866540000000    -0.0151146  
C167     C      0.599380000000     0.099060000000     0.847490000000    -0.0124919  
C168     C      0.638390000000     0.052520000000     0.903140000000    -0.0125534  
C169     C      0.613200000000     0.729040000000     0.380600000000    -0.0140369  
C170     C      0.549450000000     0.762480000000     0.402980000000    -0.0137578  
C171     C      0.632250000000     0.764670000000     0.414170000000    -0.0139358  
C172     C      0.568410000000     0.797430000000     0.437080000000    -0.0141016  
C173     C      0.667190000000     0.053340000000     0.563610000000    -0.013449   
C174     C      0.688630000000     0.967480000000     0.582940000000    -0.0139685  
C175     C      0.704950000000     0.074210000000     0.580380000000    -0.0142019  
C176     C      0.726380000000     0.987920000000     0.600490000000    -0.0143808  
C177     C      0.869130000000     0.303640000000     0.235790000000    -0.0141636  
C178     C      0.803210000000     0.269460000000     0.243900000000    -0.0140365  
C179     C      0.878620000000     0.262640000000     0.201640000000    -0.0135456  
C180     C      0.812820000000     0.228520000000     0.209690000000    -0.0137988  
C181     C      0.912410000000     0.969580000000     0.075740000000    -0.0131643  
C182     C      0.405320000000     0.036180000000     0.057930000000    -0.0130175  
C183     C      0.950890000000     0.961830000000     0.052750000000    -0.0145349  
C184     C      0.440470000000     0.045840000000     0.028740000000    -0.0145768  
C185     C      0.798860000000     0.952480000000     0.288100000000    -0.0133518  
C186     C      0.819900000000     0.001480000000     0.355530000000    -0.0128018  
C187     C      0.757640000000     0.967670000000     0.296480000000    -0.0147695  
C188     C      0.779440000000     0.019080000000     0.364200000000    -0.0142057  
C189     C      0.545220000000     0.082360000000     0.271920000000    -0.0127736  
C190     C      0.512790000000     0.100600000000     0.345250000000    -0.0129428  
C191     C      0.561970000000     0.034640000000     0.291500000000    -0.0151588  
C192     C      0.528820000000     0.053510000000     0.366910000000    -0.0149186  
Cd1      Cd     0.402810000000     0.085640000000     0.228550000000     0.507903   
Cd2      Cd     0.150260000000     0.946750000000     0.410660000000     0.509096   
Cd3      Cd     0.262640000000     0.094540000000     0.735520000000     0.507842   
Cd4      Cd     0.013410000000     0.955950000000     0.893320000000     0.507784   
Cd5      Cd     0.411080000000     0.457930000000     0.739150000000     0.50807    
Cd6      Cd     0.160090000000     0.593440000000     0.895290000000     0.508174   
Cd7      Cd     0.034910000000     0.563140000000     0.413600000000     0.508267   
Cd8      Cd     0.279930000000     0.463800000000     0.224320000000     0.507903   
Cd9      Cd     0.899150000000     0.074340000000     0.223010000000     0.507941   
Cd10     Cd     0.648140000000     0.955770000000     0.413400000000     0.508136   
Cd11     Cd     0.761890000000     0.093980000000     0.742040000000     0.50781    
Cd12     Cd     0.511630000000     0.955610000000     0.898510000000     0.50793    
Cd13     Cd     0.906770000000     0.460740000000     0.744230000000     0.507884   
Cd14     Cd     0.658390000000     0.591120000000     0.904040000000     0.507749   
Cd15     Cd     0.531140000000     0.572070000000     0.405270000000     0.508265   
Cd16     Cd     0.783380000000     0.459030000000     0.228530000000     0.507813   
H1       H      0.134790000000     0.504270000000     0.278830000000     0.0546295  
H2       H      0.182500000000     0.519540000000     0.360020000000     0.0547676  
H3       H      0.154050000000     0.470210000000     0.420350000000     0.0532603  
H4       H      0.143790000000     0.445480000000     0.252440000000     0.0535354  
H5       H      0.085140000000     0.446510000000     0.301360000000     0.0536319  
H6       H      0.119600000000     0.400940000000     0.318060000000     0.0468179  
H7       H      0.212570000000     0.467350000000     0.370730000000     0.0544535  
H8       H      0.159230000000     0.414420000000     0.387410000000     0.0466612  
H9       H      0.363110000000     0.618860000000     0.330320000000     0.047369   
H10      H      0.399440000000     0.617170000000     0.256610000000     0.0471746  
H11      H      0.456280000000     0.567860000000     0.264240000000     0.0544686  
H12      H      0.332310000000     0.568210000000     0.344780000000     0.0540618  
H13      H      0.393170000000     0.569180000000     0.389130000000     0.0537319  
H14      H      0.386390000000     0.513380000000     0.356850000000     0.0539805  
H15      H      0.395390000000     0.564660000000     0.219150000000     0.0536666  
H16      H      0.429490000000     0.512220000000     0.272720000000     0.0540026  
H17      H      0.188650000000     0.465680000000     0.052910000000     0.0501548  
H18      H      0.173850000000     0.552950000000     0.090690000000     0.0507612  
H19      H      0.232140000000     0.590110000000     0.120360000000     0.0543174  
H20      H      0.210160000000     0.465680000000     0.997280000000     0.0535901  
H21      H      0.256120000000     0.447580000000     0.060490000000     0.053811   
H22      H      0.268290000000     0.501680000000     0.027910000000     0.0501375  
H23      H      0.185430000000     0.607400000000     0.058320000000     0.0553573  
H24      H      0.253160000000     0.589160000000     0.064470000000     0.0507144  
H25      H      0.033160000000     0.542710000000     0.614770000000     0.0485297  
H26      H      0.523480000000     0.455780000000     0.574350000000     0.0489848  
H27      H      0.458250000000     0.428840000000     0.585430000000     0.0554576  
H28      H      0.018680000000     0.592150000000     0.577550000000     0.0536236  
H29      H      0.973080000000     0.575530000000     0.641820000000     0.0536195  
H30      H      0.952230000000     0.569410000000     0.586140000000     0.0517062  
H31      H      0.500990000000     0.447480000000     0.519820000000     0.0540176  
H32      H      0.440850000000     0.478220000000     0.550130000000     0.0523013  
H33      H      0.280280000000     0.598230000000     0.723000000000     0.0464946  
H34      H      0.319290000000     0.638240000000     0.783540000000     0.0463307  
H35      H      0.294860000000     0.619920000000     0.858630000000     0.053002   
H36      H      0.287690000000     0.534190000000     0.708720000000     0.0528347  
H37      H      0.228770000000     0.550790000000     0.754980000000     0.054378   
H38      H      0.260580000000     0.507360000000     0.780900000000     0.0541342  
H39      H      0.354620000000     0.603020000000     0.813550000000     0.0536477  
H40      H      0.306600000000     0.555590000000     0.853540000000     0.0539771  
H41      H      0.044770000000     0.409490000000     0.854810000000     0.0466137  
H42      H      0.006440000000     0.457720000000     0.910670000000     0.0465526  
H43      H      0.026890000000     0.543030000000     0.913760000000     0.053429   
H44      H      0.033620000000     0.411910000000     0.794900000000     0.0527401  
H45      H      0.091680000000     0.460400000000     0.817150000000     0.0544399  
H46      H      0.056000000000     0.497030000000     0.789620000000     0.0539236  
H47      H      0.471670000000     0.478520000000     0.888810000000     0.0538698  
H48      H      0.011400000000     0.554500000000     0.856400000000     0.0540598  
H49      H      0.053640000000     0.755580000000     0.850740000000     0.0511396  
H50      H      0.067640000000     0.763420000000     0.942430000000     0.0526412  
H51      H      0.135990000000     0.757740000000     0.956720000000     0.0551489  
H52      H      0.065570000000     0.808820000000     0.816970000000     0.0535743  
H53      H      0.113790000000     0.739990000000     0.812850000000     0.0532168  
H54      H      0.132610000000     0.798060000000     0.832430000000     0.0482048  
H55      H      0.085700000000     0.822040000000     0.961590000000     0.055458   
H56      H      0.144680000000     0.809320000000     0.919350000000     0.0490108  
H57      H      0.283910000000     0.304830000000     0.777780000000     0.04912    
H58      H      0.293690000000     0.301290000000     0.688970000000     0.0499372  
H59      H      0.360620000000     0.309190000000     0.668570000000     0.0555535  
H60      H      0.296670000000     0.251150000000     0.810630000000     0.0533112  
H61      H      0.344610000000     0.320260000000     0.814160000000     0.0536118  
H62      H      0.363440000000     0.262780000000     0.793310000000     0.0502894  
H63      H      0.310650000000     0.244480000000     0.664440000000     0.054867   
H64      H      0.372310000000     0.255310000000     0.701680000000     0.0516036  
H65      H      0.373880000000     0.910030000000     0.786270000000     0.0466069  
H66      H      0.414290000000     0.956570000000     0.730680000000     0.0469839  
H67      H      0.395700000000     0.042640000000     0.725920000000     0.0537791  
H68      H      0.383590000000     0.913870000000     0.846480000000     0.0527275  
H69      H      0.326830000000     0.963170000000     0.820940000000     0.0543127  
H70      H      0.362350000000     0.999580000000     0.849000000000     0.0537786  
H71      H      0.953240000000     0.994170000000     0.746630000000     0.0539923  
H72      H      0.409490000000     0.054040000000     0.783940000000     0.0539086  
H73      H      0.164190000000     0.006120000000     0.851560000000     0.0531247  
H74      H      0.117160000000     0.053800000000     0.779610000000     0.0536639  
H75      H      0.069400000000     0.101670000000     0.819870000000     0.0537092  
H76      H      0.195730000000     0.050020000000     0.877280000000     0.0540855  
H77      H      0.136920000000     0.032180000000     0.923760000000     0.0530372  
H78      H      0.144050000000     0.096400000000     0.910010000000     0.0467227  
H79      H      0.128580000000     0.118200000000     0.774040000000     0.0536924  
H80      H      0.105060000000     0.136600000000     0.849600000000     0.0466191  
H81      H      0.046970000000     0.774650000000     0.382150000000     0.0499201  
H82      H      0.111960000000     0.739020000000     0.348740000000     0.0503044  
H83      H      0.163870000000     0.766640000000     0.397190000000     0.0545832  
H84      H      0.026570000000     0.742590000000     0.430010000000     0.0539808  
H85      H      0.058690000000     0.820960000000     0.452700000000     0.0539385  
H86      H      0.079400000000     0.767340000000     0.479050000000     0.0502903  
H87      H      0.132030000000     0.686240000000     0.377120000000     0.0538615  
H88      H      0.144490000000     0.734650000000     0.445670000000     0.0500609  
H89      H      0.180870000000     0.950800000000     0.608440000000     0.0488112  
H90      H      0.146310000000     0.034860000000     0.594800000000     0.0498546  
H91      H      0.191390000000     0.103760000000     0.593850000000     0.0552419  
H92      H      0.206290000000     0.923520000000     0.561620000000     0.0533519  
H93      H      0.248410000000     0.965260000000     0.619160000000     0.0531261  
H94      H      0.252700000000     0.990540000000     0.562640000000     0.0501588  
H95      H      0.148210000000     0.061760000000     0.538650000000     0.0550591  
H96      H      0.216400000000     0.076740000000     0.546570000000     0.051387   
H97      H      0.304270000000     0.257410000000     0.261100000000     0.0506197  
H98      H      0.374880000000     0.297580000000     0.265930000000     0.0508081  
H99      H      0.413090000000     0.264290000000     0.203620000000     0.0535931  
H100     H      0.273220000000     0.283070000000     0.218620000000     0.0537431  
H101     H      0.301000000000     0.201750000000     0.195280000000     0.0536424  
H102     H      0.313050000000     0.251410000000     0.157070000000     0.0494614  
H103     H      0.385100000000     0.346170000000     0.225910000000     0.0538175  
H104     H      0.380920000000     0.288910000000     0.161810000000     0.0493507  
H105     H      0.887940000000     0.047220000000     0.022400000000     0.0480626  
H106     H      0.419480000000     0.938270000000     0.079150000000     0.0490183  
H107     H      0.486930000000     0.937840000000     0.061740000000     0.0551366  
H108     H      0.906070000000     0.095950000000     0.058080000000     0.0535604  
H109     H      0.949300000000     0.073710000000     0.993490000000     0.0536938  
H110     H      0.970820000000     0.065410000000     0.048560000000     0.052758   
H111     H      0.445710000000     0.950110000000     0.130650000000     0.0540817  
H112     H      0.493260000000     0.997200000000     0.088270000000     0.0519464  
H113     H      0.317720000000     0.008950000000     0.387040000000     0.0484619  
H114     H      0.317750000000     0.934150000000     0.332050000000     0.048287   
H115     H      0.254790000000     0.925050000000     0.300600000000     0.0544969  
H116     H      0.324380000000     0.069950000000     0.363810000000     0.0540936  
H117     H      0.257780000000     0.054440000000     0.386310000000     0.0534015  
H118     H      0.262210000000     0.065990000000     0.326090000000     0.051786   
H119     H      0.320660000000     0.945600000000     0.271680000000     0.0535043  
H120     H      0.258220000000     0.982880000000     0.270740000000     0.0510571  
H121     H      0.042050000000     0.111840000000     0.323810000000     0.0481245  
H122     H      0.065020000000     0.064900000000     0.253200000000     0.0477486  
H123     H      0.079110000000     0.978980000000     0.270980000000     0.0540217  
H124     H      0.993930000000     0.103850000000     0.342460000000     0.0542604  
H125     H      0.041730000000     0.057920000000     0.390110000000     0.0548127  
H126     H      0.006370000000     0.018600000000     0.365120000000     0.0521675  
H127     H      0.541440000000     0.078340000000     0.234410000000     0.0529539  
H128     H      0.030830000000     0.967170000000     0.286680000000     0.0518578  
H129     H      0.638370000000     0.519940000000     0.274100000000     0.0537082  
H130     H      0.680850000000     0.524170000000     0.358300000000     0.0538937  
H131     H      0.646990000000     0.472810000000     0.413100000000     0.0533259  
H132     H      0.645540000000     0.463240000000     0.243290000000     0.0534997  
H133     H      0.584460000000     0.465140000000     0.287220000000     0.0538781  
H134     H      0.615380000000     0.415120000000     0.303140000000     0.0472808  
H135     H      0.708060000000     0.469230000000     0.368600000000     0.0546699  
H136     H      0.651540000000     0.419340000000     0.376890000000     0.0471269  
H137     H      0.866330000000     0.608560000000     0.340790000000     0.0473309  
H138     H      0.902540000000     0.610710000000     0.266770000000     0.0472781  
H139     H      0.959920000000     0.562200000000     0.272530000000     0.0543366  
H140     H      0.836160000000     0.556700000000     0.353430000000     0.0539547  
H141     H      0.897070000000     0.556810000000     0.397580000000     0.0536041  
H142     H      0.890930000000     0.502430000000     0.363100000000     0.0536219  
H143     H      0.898970000000     0.559680000000     0.227550000000     0.0538582  
H144     H      0.933760000000     0.505760000000     0.279190000000     0.0537092  
H145     H      0.686410000000     0.473860000000     0.066300000000     0.0511039  
H146     H      0.693770000000     0.568140000000     0.095750000000     0.0517052  
H147     H      0.760350000000     0.585510000000     0.113200000000     0.0542066  
H148     H      0.701660000000     0.461360000000     0.008880000000     0.0534081  
H149     H      0.748520000000     0.434170000000     0.068450000000     0.0536217  
H150     H      0.767370000000     0.478650000000     0.028830000000     0.0491462  
H151     H      0.712400000000     0.612110000000     0.055590000000     0.0551751  
H152     H      0.773900000000     0.570380000000     0.055690000000     0.0498082  
H153     H      0.533660000000     0.545360000000     0.604290000000     0.0483767  
H154     H      0.024950000000     0.452250000000     0.587020000000     0.048715   
H155     H      0.958710000000     0.426020000000     0.593730000000     0.0555204  
H156     H      0.516550000000     0.596010000000     0.570220000000     0.0535091  
H157     H      0.475970000000     0.575530000000     0.638080000000     0.0534114  
H158     H      0.450780000000     0.572780000000     0.584830000000     0.0512141  
H159     H      0.005380000000     0.441720000000     0.531480000000     0.0539036  
H160     H      0.943710000000     0.473790000000     0.555080000000     0.0525592  
H161     H      0.774810000000     0.599330000000     0.726000000000     0.0464208  
H162     H      0.813930000000     0.641490000000     0.784750000000     0.0464342  
H163     H      0.790850000000     0.625040000000     0.860740000000     0.053381   
H164     H      0.782480000000     0.534990000000     0.713180000000     0.0527917  
H165     H      0.723930000000     0.552900000000     0.760170000000     0.0542187  
H166     H      0.756000000000     0.509760000000     0.785960000000     0.0539817  
H167     H      0.850170000000     0.607920000000     0.814800000000     0.0538132  
H168     H      0.803440000000     0.560870000000     0.857230000000     0.0540563  
H169     H      0.551540000000     0.402930000000     0.842920000000     0.0465289  
H170     H      0.511530000000     0.440420000000     0.903810000000     0.0467209  
H171     H      0.528820000000     0.525570000000     0.917530000000     0.0538195  
H172     H      0.540460000000     0.413410000000     0.783730000000     0.0527192  
H173     H      0.596790000000     0.461520000000     0.812740000000     0.05416    
H174     H      0.560100000000     0.499520000000     0.789020000000     0.053763   
H175     H      0.967930000000     0.495820000000     0.891170000000     0.0539299  
H176     H      0.512880000000     0.544380000000     0.862040000000     0.0538565  
H177     H      0.563900000000     0.763910000000     0.831480000000     0.0492113  
H178     H      0.535300000000     0.742470000000     0.912900000000     0.050307   
H179     H      0.585530000000     0.725980000000     0.968850000000     0.055452   
H180     H      0.585320000000     0.823730000000     0.824420000000     0.0534289  
H181     H      0.632200000000     0.754030000000     0.835220000000     0.0532921  
H182     H      0.636230000000     0.802660000000     0.876790000000     0.0499805  
H183     H      0.536400000000     0.790090000000     0.955770000000     0.0552734  
H184     H      0.605820000000     0.786020000000     0.958890000000     0.0514477  
H185     H      0.783360000000     0.301580000000     0.792230000000     0.0487953  
H186     H      0.786300000000     0.303220000000     0.702560000000     0.0498177  
H187     H      0.851010000000     0.315050000000     0.674700000000     0.055656   
H188     H      0.800530000000     0.247140000000     0.820820000000     0.0530587  
H189     H      0.846040000000     0.319470000000     0.821670000000     0.0533633  
H190     H      0.865080000000     0.263940000000     0.796980000000     0.0502777  
H191     H      0.802560000000     0.248560000000     0.673600000000     0.0551358  
H192     H      0.866630000000     0.260390000000     0.704140000000     0.0518841  
H193     H      0.875250000000     0.908750000000     0.781420000000     0.0468623  
H194     H      0.914240000000     0.957400000000     0.726400000000     0.0469865  
H195     H      0.895010000000     0.043320000000     0.725010000000     0.0536413  
H196     H      0.886410000000     0.909710000000     0.841360000000     0.0529145  
H197     H      0.829010000000     0.959970000000     0.820050000000     0.0545129  
H198     H      0.865220000000     0.995270000000     0.848050000000     0.0534831  
H199     H      0.452950000000     0.993880000000     0.751020000000     0.0539195  
H200     H      0.910460000000     0.052950000000     0.782680000000     0.0537894  
H201     H      0.663190000000     0.001700000000     0.854790000000     0.0540128  
H202     H      0.616010000000     0.057230000000     0.788000000000     0.0542148  
H203     H      0.570500000000     0.103800000000     0.833070000000     0.0536851  
H204     H      0.696450000000     0.041900000000     0.882410000000     0.0543405  
H205     H      0.638200000000     0.022880000000     0.929490000000     0.0529177  
H206     H      0.646840000000     0.087700000000     0.920050000000     0.046471   
H207     H      0.629120000000     0.121340000000     0.786480000000     0.0534298  
H208     H      0.607730000000     0.134570000000     0.863900000000     0.0463941  
H209     H      0.545480000000     0.782760000000     0.370270000000     0.0497459  
H210     H      0.612880000000     0.746840000000     0.346350000000     0.0498959  
H211     H      0.660440000000     0.775430000000     0.400510000000     0.0540553  
H212     H      0.521000000000     0.752120000000     0.416090000000     0.0539214  
H213     H      0.551030000000     0.831540000000     0.440310000000     0.0540937  
H214     H      0.568930000000     0.778920000000     0.471010000000     0.0505386  
H215     H      0.630440000000     0.694730000000     0.378040000000     0.0535912  
H216     H      0.636840000000     0.744690000000     0.446920000000     0.0502084  
H217     H      0.668900000000     0.964570000000     0.612420000000     0.049105   
H218     H      0.646770000000     0.054350000000     0.592520000000     0.0498942  
H219     H      0.700190000000     0.111940000000     0.594390000000     0.0551783  
H220     H      0.693100000000     0.929610000000     0.569120000000     0.0536296  
H221     H      0.736560000000     0.964240000000     0.629010000000     0.0532255  
H222     H      0.747440000000     0.985460000000     0.572350000000     0.0504797  
H223     H      0.655940000000     0.077410000000     0.535980000000     0.0546331  
H224     H      0.724230000000     0.077680000000     0.550520000000     0.0514493  
H225     H      0.808070000000     0.254870000000     0.278940000000     0.0497999  
H226     H      0.878290000000     0.291280000000     0.270290000000     0.0502246  
H227     H      0.909200000000     0.253410000000     0.204470000000     0.0541687  
H228     H      0.772680000000     0.278810000000     0.240750000000     0.0535348  
H229     H      0.796250000000     0.194820000000     0.218330000000     0.053245   
H230     H      0.803910000000     0.241030000000     0.175130000000     0.0500202  
H231     H      0.885630000000     0.337340000000     0.226930000000     0.0537848  
H232     H      0.873490000000     0.277110000000     0.166620000000     0.050142   
H233     H      0.385920000000     0.010950000000     0.039150000000     0.0485032  
H234     H      0.889960000000     0.958080000000     0.051300000000     0.0481058  
H235     H      0.951880000000     0.923070000000     0.039990000000     0.0548436  
H236     H      0.389900000000     0.071580000000     0.063250000000     0.0535696  
H237     H      0.431350000000     0.059750000000     0.994740000000     0.0539518  
H238     H      0.457430000000     0.075450000000     0.045390000000     0.0519131  
H239     H      0.910340000000     0.945410000000     0.106370000000     0.0543539  
H240     H      0.973710000000     0.966210000000     0.078600000000     0.0526626  
H241     H      0.824660000000     0.967110000000     0.375670000000     0.0473832  
H242     H      0.804000000000     0.916910000000     0.306200000000     0.0478228  
H243     H      0.738910000000     0.936090000000     0.287390000000     0.0546325  
H244     H      0.840150000000     0.029980000000     0.367900000000     0.0535155  
H245     H      0.775420000000     0.023650000000     0.401640000000     0.0531132  
H246     H      0.775790000000     0.056030000000     0.348040000000     0.0523517  
H247     H      0.803330000000     0.946030000000     0.250990000000     0.0538587  
H248     H      0.750700000000     0.998790000000     0.273070000000     0.0522464  
H249     H      0.532780000000     0.131490000000     0.352310000000     0.0473387  
H250     H      0.565750000000     0.112880000000     0.277990000000     0.0470166  
H251     H      0.590770000000     0.029380000000     0.276930000000     0.053776   
H252     H      0.485240000000     0.109890000000     0.361470000000     0.053676   
H253     H      0.535160000000     0.061170000000     0.403450000000     0.0546114  
H254     H      0.506620000000     0.024350000000     0.365830000000     0.0531264  
H255     H      0.032460000000     0.025590000000     0.223010000000     0.05301    
H256     H      0.544230000000     0.002990000000     0.280030000000     0.053144   
N1       N      0.116930000000     0.462580000000     0.362410000000    -0.151587   
N2       N      0.181250000000     0.465840000000     0.307480000000    -0.15029    
N3       N      0.428580000000     0.560450000000     0.329600000000    -0.150686   
N4       N      0.361180000000     0.562730000000     0.280070000000    -0.151206   
N5       N      0.247090000000     0.518050000000     0.093710000000    -0.151714   
N6       N      0.194690000000     0.537210000000     0.024580000000    -0.151192   
N7       N      0.461850000000     0.502510000000     0.613930000000    -0.150743   
N8       N      0.013640000000     0.518130000000     0.550440000000    -0.151799   
N9       N      0.259190000000     0.576910000000     0.814060000000    -0.150631   
N10      N      0.323980000000     0.564220000000     0.760950000000    -0.151987   
N11      N      0.061260000000     0.511380000000     0.860390000000    -0.15072    
N12      N      0.997670000000     0.454710000000     0.839330000000    -0.151826   
N13      N      0.127020000000     0.744660000000     0.884690000000    -0.151437   
N14      N      0.070790000000     0.817200000000     0.890070000000    -0.150983   
N15      N      0.356890000000     0.317070000000     0.741970000000    -0.151039   
N16      N      0.301020000000     0.244030000000     0.737380000000    -0.151711   
N17      N      0.359140000000     0.012220000000     0.777810000000    -0.150066   
N18      N      0.421330000000     0.954340000000     0.802330000000    -0.151804   
N19      N      0.100360000000     0.062490000000     0.871940000000    -0.151924   
N20      N      0.164800000000     0.075700000000     0.818440000000    -0.150434   
N21      N      0.113260000000     0.798070000000     0.426680000000    -0.151301   
N22      N      0.077190000000     0.710320000000     0.401150000000    -0.151826   
N23      N      0.223520000000     0.037420000000     0.608450000000    -0.151266   
N24      N      0.175280000000     0.990540000000     0.546630000000    -0.151288   
N25      N      0.358590000000     0.228470000000     0.198840000000    -0.151834   
N26      N      0.327600000000     0.318770000000     0.226250000000    -0.151758   
N27      N      0.956920000000     0.998110000000     0.015680000000    -0.151226   
N28      N      0.416690000000     0.012710000000     0.101100000000    -0.151278   
N29      N      0.250940000000     0.991010000000     0.341950000000    -0.151238   
N30      N      0.325580000000     0.009510000000     0.315450000000    -0.151553   
N31      N      0.060290000000     0.011380000000     0.334520000000    -0.150484   
N32      N      0.009750000000     0.065460000000     0.280730000000    -0.152049   
N33      N      0.613050000000     0.472730000000     0.351910000000    -0.151569   
N34      N      0.680610000000     0.474010000000     0.302850000000    -0.150659   
N35      N      0.932450000000     0.551670000000     0.337660000000    -0.150881   
N36      N      0.864890000000     0.554700000000     0.288450000000    -0.151147   
N37      N      0.756650000000     0.508290000000     0.094380000000    -0.151709   
N38      N      0.702940000000     0.537970000000     0.030040000000    -0.151386   
N39      N      0.960810000000     0.500980000000     0.619590000000    -0.150864   
N40      N      0.510490000000     0.523060000000     0.541060000000    -0.151704   
N41      N      0.755090000000     0.579770000000     0.818340000000    -0.150086   
N42      N      0.819150000000     0.566890000000     0.764030000000    -0.151869   
N43      N      0.564320000000     0.504330000000     0.860960000000    -0.15033    
N44      N      0.502950000000     0.447170000000     0.832670000000    -0.151974   
N45      N      0.612320000000     0.736940000000     0.903160000000    -0.151332   
N46      N      0.557760000000     0.810280000000     0.889090000000    -0.15121    
N47      N      0.853020000000     0.319590000000     0.748440000000    -0.150917   
N48      N      0.798920000000     0.243990000000     0.747210000000    -0.151515   
N49      N      0.860070000000     0.011040000000     0.777540000000    -0.150248   
N50      N      0.922950000000     0.952540000000     0.797670000000    -0.151491   
N51      N      0.601420000000     0.059100000000     0.881260000000    -0.152062   
N52      N      0.665040000000     0.073740000000     0.826570000000    -0.150414   
N53      N      0.607620000000     0.807680000000     0.422750000000    -0.151542   
N54      N      0.573870000000     0.719220000000     0.394750000000    -0.151944   
N55      N      0.722190000000     0.040250000000     0.613900000000    -0.151177   
N56      N      0.672410000000     0.001670000000     0.549010000000    -0.150869   
N57      N      0.853940000000     0.219510000000     0.209350000000    -0.151661   
N58      N      0.827990000000     0.312620000000     0.236590000000    -0.151973   
N59      N      0.463860000000     0.000690000000     0.025440000000    -0.150479   
N60      N      0.907520000000     0.022270000000     0.086620000000    -0.151181   
N61      N      0.751750000000     0.984440000000     0.344010000000    -0.151009   
N62      N      0.824370000000     0.990400000000     0.306740000000    -0.151943   
N63      N      0.562490000000     0.035350000000     0.342020000000    -0.150575   
N64      N      0.509690000000     0.093560000000     0.295700000000    -0.15205    
O1       O      0.408020000000     0.175600000000     0.214800000000    -0.250939   
O2       O      0.362690000000     0.013830000000     0.250750000000    -0.248951   
O3       O      0.444650000000     0.097690000000     0.295260000000    -0.249187   
O4       O      0.395770000000     0.077510000000     0.145410000000    -0.250136   
O5       O      0.422520000000     0.016160000000     0.179410000000    -0.244508   
O6       O      0.472760000000     0.083910000000     0.231560000000    -0.250058   
O7       O      0.352090000000     0.144690000000     0.210440000000    -0.2495     
O8       O      0.363010000000     0.075920000000     0.296470000000    -0.24836    
O9       O      0.157920000000     0.855850000000     0.405210000000    -0.24498    
O10      O      0.094280000000     0.000690000000     0.400990000000    -0.243516   
O11      O      0.202460000000     0.935320000000     0.354510000000    -0.244341   
O12      O      0.177920000000     0.935040000000     0.487040000000    -0.251346   
O13      O      0.147000000000     0.002760000000     0.476690000000    -0.242323   
O14      O      0.203350000000     0.001990000000     0.394440000000    -0.253621   
O15      O      0.105170000000     0.882240000000     0.432620000000    -0.252903   
O16      O      0.113400000000     0.962520000000     0.340900000000    -0.252325   
O17      O      0.229010000000     0.069820000000     0.805850000000    -0.243055   
O18      O      0.330090000000     0.070930000000     0.732660000000    -0.249608   
O19      O      0.287150000000     0.170870000000     0.700960000000    -0.248277   
O20      O      0.229240000000     0.099120000000     0.662100000000    -0.24504    
O21      O      0.256640000000     0.029810000000     0.675940000000    -0.251875   
O22      O      0.277590000000     0.174510000000     0.773280000000    -0.252809   
O23      O      0.194990000000     0.103780000000     0.753780000000    -0.249773   
O24      O      0.295480000000     0.030400000000     0.780110000000    -0.242697   
O25      O      0.047980000000     0.886100000000     0.927110000000    -0.245277   
O26      O      0.983810000000     0.015720000000     0.945910000000    -0.252361   
O27      O      0.983790000000     0.972800000000     0.818700000000    -0.243682   
O28      O      0.041890000000     0.029050000000     0.856370000000    -0.244928   
O29      O      0.075380000000     0.994700000000     0.908720000000    -0.252166   
O30      O      0.949980000000     0.931630000000     0.866550000000    -0.251391   
O31      O      0.038410000000     0.880800000000     0.854870000000    -0.251802   
O32      O      0.983990000000     0.940020000000     0.968290000000    -0.244965   
O33      O      0.475940000000     0.434960000000     0.762060000000    -0.253099   
O34      O      0.382900000000     0.531600000000     0.775690000000    -0.246128   
O35      O      0.379260000000     0.387370000000     0.777580000000    -0.251223   
O36      O      0.441490000000     0.518440000000     0.687310000000    -0.250967   
O37      O      0.434170000000     0.444780000000     0.661060000000    -0.242558   
O38      O      0.385940000000     0.381780000000     0.704900000000    -0.243784   
O39      O      0.441530000000     0.467560000000     0.814520000000    -0.245612   
O40      O      0.348850000000     0.496170000000     0.724440000000    -0.253379   
O41      O      0.228140000000     0.604560000000     0.878420000000    -0.252361   
O42      O      0.124760000000     0.528990000000     0.853940000000    -0.244871   
O43      O      0.138590000000     0.667980000000     0.853040000000    -0.251676   
O44      O      0.171850000000     0.598940000000     0.977980000000    -0.243395   
O45      O      0.182930000000     0.528050000000     0.947630000000    -0.251661   
O46      O      0.148530000000     0.677170000000     0.924880000000    -0.244134   
O47      O      0.195020000000     0.569830000000     0.825930000000    -0.244356   
O48      O      0.092470000000     0.570660000000     0.902700000000    -0.2525     
O49      O      0.461800000000     0.566190000000     0.397080000000    -0.250012   
O50      O      0.028920000000     0.577050000000     0.496660000000    -0.249305   
O51      O      0.030570000000     0.654130000000     0.419290000000    -0.250604   
O52      O      0.059880000000     0.503300000000     0.358140000000    -0.246107   
O53      O      0.094710000000     0.516330000000     0.417230000000    -0.247597   
O54      O      0.083510000000     0.625790000000     0.394810000000    -0.251774   
O55      O      0.997100000000     0.561270000000     0.342650000000    -0.246096   
O56      O      0.020120000000     0.502410000000     0.473590000000    -0.249605   
O57      O      0.245910000000     0.467250000000     0.297670000000    -0.242878   
O58      O      0.257260000000     0.527620000000     0.170860000000    -0.250755   
O59      O      0.276930000000     0.372330000000     0.224090000000    -0.251741   
O60      O      0.337300000000     0.515900000000     0.220960000000    -0.24657    
O61      O      0.306350000000     0.517110000000     0.284230000000    -0.243393   
O62      O      0.332630000000     0.403710000000     0.225990000000    -0.251928   
O63      O      0.211180000000     0.459510000000     0.237840000000    -0.249199   
O64      O      0.270070000000     0.456930000000     0.141040000000    -0.251165   
O65      O      0.903780000000     0.164820000000     0.213960000000    -0.248385   
O66      O      0.851090000000     0.009360000000     0.237130000000    -0.246304   
O67      O      0.947610000000     0.091120000000     0.282140000000    -0.247138   
O68      O      0.901760000000     0.084420000000     0.139840000000    -0.250114   
O69      O      0.903720000000     0.009300000000     0.164240000000    -0.242446   
O70      O      0.966340000000     0.049350000000     0.224090000000    -0.252441   
O71      O      0.847430000000     0.135320000000     0.218680000000    -0.252276   
O72      O      0.869870000000     0.050120000000     0.295880000000    -0.249878   
O73      O      0.654720000000     0.864610000000     0.408200000000    -0.248098   
O74      O      0.590490000000     0.007270000000     0.408230000000    -0.244432   
O75      O      0.693680000000     0.945890000000     0.349670000000    -0.243745   
O76      O      0.669510000000     0.942600000000     0.492430000000    -0.250294   
O77      O      0.650560000000     0.016230000000     0.476120000000    -0.243918   
O78      O      0.711020000000     0.993270000000     0.404750000000    -0.252422   
O79      O      0.600010000000     0.892030000000     0.427640000000    -0.252617   
O80      O      0.617710000000     0.990170000000     0.344590000000    -0.250565   
O81      O      0.728790000000     0.066260000000     0.811700000000    -0.243689   
O82      O      0.829510000000     0.071220000000     0.735550000000    -0.250344   
O83      O      0.783430000000     0.172440000000     0.709100000000    -0.246548   
O84      O      0.732280000000     0.102150000000     0.666430000000    -0.244664   
O85      O      0.750950000000     0.028940000000     0.683810000000    -0.252103   
O86      O      0.778980000000     0.172040000000     0.782230000000    -0.252178   
O87      O      0.694660000000     0.104980000000     0.762690000000    -0.251007   
O88      O      0.796580000000     0.029090000000     0.783470000000    -0.242945   
O89      O      0.523210000000     0.870850000000     0.925260000000    -0.245081   
O90      O      0.473010000000     0.009780000000     0.947970000000    -0.250711   
O91      O      0.482280000000     0.973270000000     0.823850000000    -0.24549    
O92      O      0.541440000000     0.030340000000     0.866140000000    -0.246325   
O93      O      0.575300000000     0.989600000000     0.914040000000    -0.252916   
O94      O      0.447510000000     0.933730000000     0.871770000000    -0.251767   
O95      O      0.547730000000     0.888610000000     0.860180000000    -0.251155   
O96      O      0.500570000000     0.948910000000     0.981400000000    -0.243911   
O97      O      0.970380000000     0.435890000000     0.770130000000    -0.252773   
O98      O      0.878210000000     0.535020000000     0.779170000000    -0.245596   
O99      O      0.877830000000     0.388640000000     0.783930000000    -0.251224   
O100     O      0.937890000000     0.519670000000     0.691300000000    -0.251592   
O101     O      0.932370000000     0.444800000000     0.667620000000    -0.243604   
O102     O      0.878700000000     0.386200000000     0.710650000000    -0.244019   
O103     O      0.937040000000     0.476440000000     0.818790000000    -0.244931   
O104     O      0.844180000000     0.498070000000     0.728870000000    -0.252861   
O105     O      0.725300000000     0.605890000000     0.884110000000    -0.249563   
O106     O      0.626670000000     0.528540000000     0.856200000000    -0.24301    
O107     O      0.646750000000     0.674050000000     0.869680000000    -0.251709   
O108     O      0.685110000000     0.600310000000     0.981070000000    -0.247188   
O109     O      0.677110000000     0.525390000000     0.958650000000    -0.252737   
O110     O      0.623280000000     0.661150000000     0.936220000000    -0.246364   
O111     O      0.691460000000     0.570040000000     0.832790000000    -0.241936   
O112     O      0.592730000000     0.560200000000     0.909540000000    -0.249372   
O113     O      0.965720000000     0.555400000000     0.405200000000    -0.250575   
O114     O      0.525620000000     0.583620000000     0.488740000000    -0.249744   
O115     O      0.526110000000     0.663240000000     0.408740000000    -0.251166   
O116     O      0.557600000000     0.516940000000     0.346730000000    -0.245035   
O117     O      0.589340000000     0.522070000000     0.409270000000    -0.247503   
O118     O      0.580830000000     0.634610000000     0.391270000000    -0.252648   
O119     O      0.493380000000     0.568100000000     0.334450000000    -0.244997   
O120     O      0.515670000000     0.509960000000     0.463670000000    -0.249337   
O121     O      0.745390000000     0.465710000000     0.298840000000    -0.242634   
O122     O      0.772050000000     0.522230000000     0.169650000000    -0.249296   
O123     O      0.778510000000     0.368090000000     0.236860000000    -0.252342   
O124     O      0.841090000000     0.510540000000     0.227580000000    -0.245071   
O125     O      0.809880000000     0.509260000000     0.290650000000    -0.24433    
O126     O      0.834520000000     0.396770000000     0.227400000000    -0.252806   
O127     O      0.714160000000     0.465830000000     0.235880000000    -0.250546   
O128     O      0.768840000000     0.446730000000     0.146800000000    -0.250447   


