data_structure

_audit_creation_method RASPA-1.0
_audit_creation_date 2023-5-22
_audit_author_name 'Poobodin Mano'

_cell_length_a    33.0306
_cell_length_b    32.624
_cell_length_c    29.7249
_cell_angle_alpha 90.0123
_cell_angle_beta  90.0037
_cell_angle_gamma 102.951
_cell_volume      31216.5

_symmetry_cell_setting          triclinic
_symmetry_space_group_name_Hall 'P 1'
_symmetry_space_group_name_H-M  'P 1'
_symmetry_Int_Tables_number     1

_symmetry_equiv_pos_as_xyz 'x,y,z'

loop_
_atom_site_label
_atom_site_type_symbol
_atom_site_fract_x
_atom_site_fract_y
_atom_site_fract_z
_atom_site_charge
C1       C      0.247270000000     0.311570000000     0.463170000000     0.339154   
C2       C      0.165500000000     0.347740000000     0.340330000000     0.337419   
C3       C      0.108570000000     0.307590000000     0.476200000000     0.339651   
C4       C      0.228360000000     0.438780000000     0.459060000000     0.341165   
C5       C      0.323600000000     0.195510000000     0.523740000000     0.339171   
C6       C      0.405710000000     0.159120000000     0.646420000000     0.337505   
C7       C      0.342120000000     0.068300000000     0.527730000000     0.34104    
C8       C      0.462230000000     0.199090000000     0.510460000000     0.339731   
C9       C      0.392010000000     0.150590000000     0.827960000000     0.337726   
C10      C      0.327790000000     0.198470000000     0.960930000000     0.341833   
C11      C      0.336500000000     0.075060000000     0.958640000000     0.338004   
C12      C      0.465030000000     0.203340000000     0.955640000000     0.336851   
C13      C      0.179020000000     0.356220000000     0.158750000000     0.337862   
C14      C      0.240700000000     0.305750000000     0.025500000000     0.341802   
C15      C      0.104060000000     0.303110000000     0.032590000000     0.337255   
C16      C      0.233890000000     0.430240000000     0.027350000000     0.33809    
C17      C      0.054570000000     0.233670000000     0.029300000000    -0.0146415  
C18      C      0.034480000000     0.298020000000     0.998480000000    -0.0142884  
C19      C      0.035840000000     0.208430000000     0.987810000000    -0.0142492  
C20      C      0.015730000000     0.272770000000     0.957010000000    -0.0147659  
C21      C      0.305190000000     0.471450000000     0.013980000000    -0.0146091  
C22      C      0.245120000000     0.486530000000     0.970050000000    -0.0141093  
C23      C      0.325490000000     0.018380000000     0.015470000000    -0.014093   
C24      C      0.265290000000     0.033640000000     0.971860000000    -0.0145642  
C25      C      0.272800000000     0.280070000000     0.959210000000    -0.0136486  
C26      C      0.298040000000     0.269600000000     0.037350000000    -0.01365    
C27      C      0.269710000000     0.233630000000     0.949050000000    -0.013498   
C28      C      0.294800000000     0.223170000000     0.027150000000    -0.0134264  
C29      C      0.406920000000     0.115930000000     0.757380000000    -0.0149708  
C30      C      0.375940000000     0.180120000000     0.755620000000    -0.0144789  
C31      C      0.433510000000     0.133100000000     0.716090000000    -0.0139498  
C32      C      0.405350000000     0.198090000000     0.717560000000    -0.0131922  
C33      C      0.166930000000     0.309130000000     0.269130000000    -0.013289   
C34      C      0.137510000000     0.373370000000     0.270550000000    -0.0139573  
C35      C      0.196230000000     0.327650000000     0.231180000000    -0.0143513  
C36      C      0.163960000000     0.390930000000     0.229290000000    -0.0149565  
C37      C      0.037870000000     0.208450000000     0.493610000000    -0.0145572  
C38      C      0.499370000000     0.263950000000     0.471630000000    -0.0140482  
C39      C      0.071650000000     0.242740000000     0.515230000000    -0.0141441  
C40      C      0.033250000000     0.297650000000     0.492170000000    -0.0145942  
C41      C      0.286830000000     0.499760000000     0.444260000000    -0.0141748  
C42      C      0.243920000000     0.497310000000     0.514290000000    -0.0140121  
C43      C      0.326640000000     0.509480000000     0.472580000000    -0.0140574  
C44      C      0.283740000000     0.507080000000     0.542620000000    -0.0142448  
C45      C      0.283370000000     0.218350000000     0.462080000000    -0.0135409  
C46      C      0.277010000000     0.243160000000     0.541200000000    -0.0137688  
C47      C      0.293910000000     0.263960000000     0.445740000000    -0.0138141  
C48      C      0.287520000000     0.288770000000     0.524860000000    -0.0136009  
C49      C      0.247230000000     0.811230000000     0.463160000000     0.339093   
C50      C      0.165560000000     0.847540000000     0.340280000000     0.33739    
C51      C      0.108590000000     0.807350000000     0.476160000000     0.339766   
C52      C      0.228420000000     0.938510000000     0.459040000000     0.341196   
C53      C      0.323550000000     0.695170000000     0.523730000000     0.339159   
C54      C      0.405790000000     0.659000000000     0.646390000000     0.337517   
C55      C      0.342290000000     0.568000000000     0.527810000000     0.341098   
C56      C      0.462250000000     0.698870000000     0.510420000000     0.339772   
C57      C      0.392110000000     0.650580000000     0.827930000000     0.337691   
C58      C      0.327780000000     0.698400000000     0.960860000000     0.341827   
C59      C      0.336540000000     0.575030000000     0.958590000000     0.338012   
C60      C      0.465060000000     0.703320000000     0.955620000000     0.337023   
C61      C      0.179100000000     0.856170000000     0.158720000000     0.337743   
C62      C      0.240690000000     0.805680000000     0.025430000000     0.341623   
C63      C      0.104080000000     0.803080000000     0.032560000000     0.337274   
C64      C      0.233910000000     0.930200000000     0.027310000000     0.338096   
C65      C      0.054540000000     0.733670000000     0.029360000000    -0.014607   
C66      C      0.034560000000     0.797990000000     0.998320000000    -0.0142346  
C67      C      0.035860000000     0.708360000000     0.987900000000    -0.0143368  
C68      C      0.015860000000     0.772680000000     0.956870000000    -0.0148009  
C69      C      0.305200000000     0.971360000000     0.013780000000    -0.0145614  
C70      C      0.245040000000     0.986630000000     0.970170000000    -0.0141172  
C71      C      0.325430000000     0.518480000000     0.015560000000    -0.0140883  
C72      C      0.265320000000     0.533560000000     0.971640000000    -0.0145803  
C73      C      0.272760000000     0.779970000000     0.959140000000    -0.0136221  
C74      C      0.298000000000     0.769500000000     0.037270000000    -0.0135984  
C75      C      0.269680000000     0.733540000000     0.948970000000    -0.0135185  
C76      C      0.294750000000     0.723070000000     0.027070000000    -0.0134226  
C77      C      0.407040000000     0.615910000000     0.757370000000    -0.0148947  
C78      C      0.376060000000     0.680100000000     0.755570000000    -0.0145125  
C79      C      0.433620000000     0.633050000000     0.716070000000    -0.0139715  
C80      C      0.405470000000     0.698040000000     0.717490000000    -0.0131688  
C81      C      0.167050000000     0.809010000000     0.269050000000    -0.0133165  
C82      C      0.137560000000     0.873210000000     0.270530000000    -0.0140217  
C83      C      0.196350000000     0.827590000000     0.231130000000    -0.0143644  
C84      C      0.164020000000     0.890820000000     0.229280000000    -0.0148697  
C85      C      0.037870000000     0.708230000000     0.493580000000    -0.0145426  
C86      C      0.499390000000     0.763740000000     0.471590000000    -0.0140424  
C87      C      0.071660000000     0.742510000000     0.515190000000    -0.0140893  
C88      C      0.033270000000     0.797430000000     0.492150000000    -0.0145959  
C89      C      0.286880000000     0.999490000000     0.444210000000    -0.0141602  
C90      C      0.243790000000     0.997170000000     0.514120000000    -0.0139799  
C91      C      0.326600000000     0.009590000000     0.472670000000    -0.0137209  
C92      C      0.283580000000     0.007310000000     0.542470000000    -0.0139411  
C93      C      0.283280000000     0.717970000000     0.462070000000    -0.013629   
C94      C      0.276900000000     0.742770000000     0.541190000000    -0.0138006  
C95      C      0.293830000000     0.763590000000     0.445740000000    -0.0137688  
C96      C      0.287430000000     0.788380000000     0.524860000000    -0.0135307  
C97      C      0.747510000000     0.310710000000     0.462650000000     0.339144   
C98      C      0.665650000000     0.347190000000     0.339930000000     0.33751    
C99      C      0.608880000000     0.307130000000     0.475890000000     0.339668   
C100     C      0.728920000000     0.437980000000     0.458620000000     0.341055   
C101     C      0.823850000000     0.194650000000     0.523110000000     0.339064   
C102     C      0.905900000000     0.158650000000     0.645740000000     0.337418   
C103     C      0.842780000000     0.067500000000     0.527140000000     0.341106   
C104     C      0.962570000000     0.198560000000     0.509700000000     0.339826   
C105     C      0.891960000000     0.150330000000     0.827230000000     0.337831   
C106     C      0.829360000000     0.200110000000     0.960380000000     0.341589   
C107     C      0.836790000000     0.075900000000     0.958310000000     0.338102   
C108     C      0.966310000000     0.203300000000     0.953600000000     0.337369   
C109     C      0.679500000000     0.356250000000     0.158460000000     0.337722   
C110     C      0.742170000000     0.307310000000     0.025100000000     0.341493   
C111     C      0.604930000000     0.303360000000     0.032370000000     0.337088   
C112     C      0.734190000000     0.431160000000     0.027310000000     0.338209   
C113     C      0.556070000000     0.233640000000     0.028950000000    -0.0145135  
C114     C      0.534300000000     0.298190000000     0.001170000000    -0.0140857  
C115     C      0.535130000000     0.208740000000     0.988210000000    -0.0140904  
C116     C      0.513340000000     0.273240000000     0.960460000000    -0.0145064  
C117     C      0.805400000000     0.472720000000     0.014440000000    -0.0144978  
C118     C      0.745470000000     0.487300000000     0.969850000000    -0.0141108  
C119     C      0.825370000000     0.019920000000     0.015940000000    -0.0141448  
C120     C      0.765540000000     0.034300000000     0.971020000000    -0.0145742  
C121     C      0.774640000000     0.282180000000     0.958750000000    -0.0136028  
C122     C      0.800130000000     0.271970000000     0.036770000000    -0.0134966  
C123     C      0.771630000000     0.235750000000     0.948630000000    -0.0135239  
C124     C      0.797100000000     0.225540000000     0.026690000000    -0.013593   
C125     C      0.907030000000     0.115540000000     0.756770000000    -0.0149647  
C126     C      0.875400000000     0.179260000000     0.754740000000    -0.0143565  
C127     C      0.933670000000     0.132890000000     0.715570000000    -0.0139514  
C128     C      0.904880000000     0.197510000000     0.716840000000    -0.0132996  
C129     C      0.666800000000     0.308640000000     0.268640000000    -0.013264   
C130     C      0.637800000000     0.373130000000     0.270250000000    -0.0139762  
C131     C      0.696240000000     0.327110000000     0.230780000000    -0.0144831  
C132     C      0.664440000000     0.390730000000     0.229130000000    -0.0149134  
C133     C      0.537340000000     0.208410000000     0.493530000000    -0.0142755  
C134     C      0.999470000000     0.263350000000     0.470560000000    -0.0138417  
C135     C      0.571760000000     0.242280000000     0.514760000000    -0.0140311  
C136     C      0.533800000000     0.297880000000     0.492800000000    -0.0144327  
C137     C      0.787450000000     0.498900000000     0.443770000000    -0.014239   
C138     C      0.744650000000     0.496460000000     0.513890000000    -0.013984   
C139     C      0.827310000000     0.508640000000     0.472030000000    -0.0140468  
C140     C      0.784510000000     0.506190000000     0.542140000000    -0.0142135  
C141     C      0.783470000000     0.217400000000     0.461520000000    -0.0135623  
C142     C      0.777240000000     0.242260000000     0.540630000000    -0.0137422  
C143     C      0.794020000000     0.263000000000     0.445150000000    -0.0137344  
C144     C      0.787780000000     0.287860000000     0.524270000000    -0.0135625  
C145     C      0.747480000000     0.810400000000     0.462640000000     0.339197   
C146     C      0.665670000000     0.846990000000     0.339910000000     0.337681   
C147     C      0.608900000000     0.806920000000     0.475880000000     0.33966    
C148     C      0.729000000000     0.937730000000     0.458610000000     0.341237   
C149     C      0.823790000000     0.694320000000     0.523100000000     0.339166   
C150     C      0.905920000000     0.658490000000     0.645730000000     0.337606   
C151     C      0.842910000000     0.567210000000     0.527210000000     0.341222   
C152     C      0.962570000000     0.698340000000     0.509700000000     0.339861   
C153     C      0.891960000000     0.650220000000     0.827210000000     0.337645   
C154     C      0.829500000000     0.700170000000     0.960370000000     0.341863   
C155     C      0.836790000000     0.575890000000     0.958340000000     0.338074   
C156     C      0.966380000000     0.703230000000     0.953560000000     0.33737    
C157     C      0.679510000000     0.856130000000     0.158440000000     0.337789   
C158     C      0.742320000000     0.807390000000     0.025080000000     0.341605   
C159     C      0.605010000000     0.803300000000     0.032330000000     0.337084   
C160     C      0.734200000000     0.931170000000     0.027340000000     0.338044   
C161     C      0.556210000000     0.733550000000     0.028800000000    -0.0145232  
C162     C      0.534320000000     0.798130000000     0.001260000000    -0.014226   
C163     C      0.535220000000     0.708720000000     0.988040000000    -0.0140975  
C164     C      0.513310000000     0.773240000000     0.960540000000    -0.0144358  
C165     C      0.805400000000     0.972830000000     0.014640000000    -0.0144609  
C166     C      0.745550000000     0.987200000000     0.969750000000    -0.014119   
C167     C      0.825440000000     0.519790000000     0.015830000000    -0.014171   
C168     C      0.765530000000     0.534390000000     0.971220000000    -0.0145782  
C169     C      0.774840000000     0.782310000000     0.958730000000    -0.0135661  
C170     C      0.800340000000     0.772110000000     0.036750000000    -0.0135927  
C171     C      0.771820000000     0.735890000000     0.948610000000    -0.0135903  
C172     C      0.797310000000     0.725680000000     0.026670000000    -0.0134903  
C173     C      0.907060000000     0.615420000000     0.756770000000    -0.0148835  
C174     C      0.875350000000     0.679090000000     0.754710000000    -0.0144535  
C175     C      0.933720000000     0.632790000000     0.715580000000    -0.0140436  
C176     C      0.904840000000     0.697360000000     0.716820000000    -0.0132182  
C177     C      0.666790000000     0.808460000000     0.268600000000    -0.0131977  
C178     C      0.637820000000     0.872960000000     0.270250000000    -0.0139022  
C179     C      0.696230000000     0.826930000000     0.230740000000    -0.0145267  
C180     C      0.664450000000     0.890570000000     0.229130000000    -0.0149902  
C181     C      0.537370000000     0.708210000000     0.493510000000    -0.014277   
C182     C      0.999470000000     0.763140000000     0.470550000000    -0.0138725  
C183     C      0.571780000000     0.742080000000     0.514760000000    -0.0141062  
C184     C      0.533810000000     0.797680000000     0.492750000000    -0.0144803  
C185     C      0.787540000000     0.998640000000     0.443740000000    -0.0142053  
C186     C      0.744550000000     0.996340000000     0.513740000000    -0.0140206  
C187     C      0.827300000000     0.008730000000     0.472140000000    -0.0137195  
C188     C      0.784390000000     0.006400000000     0.542020000000    -0.0139412  
C189     C      0.783390000000     0.717040000000     0.461510000000    -0.0136306  
C190     C      0.777130000000     0.741890000000     0.540620000000    -0.0137355  
C191     C      0.793940000000     0.762640000000     0.445150000000    -0.0136872  
C192     C      0.787690000000     0.787490000000     0.524280000000    -0.0136272  
Cd1      Cd     0.184760000000     0.354270000000     0.435100000000     0.508185   
Cd2      Cd     0.386030000000     0.152660000000     0.551740000000     0.508262   
Cd3      Cd     0.385220000000     0.154090000000     0.924610000000     0.50908    
Cd4      Cd     0.184700000000     0.351700000000     0.062070000000     0.50913    
Cd5      Cd     0.184790000000     0.854020000000     0.435070000000     0.50818    
Cd6      Cd     0.386070000000     0.652440000000     0.551720000000     0.508254   
Cd7      Cd     0.385260000000     0.654060000000     0.924580000000     0.509117   
Cd8      Cd     0.184730000000     0.851660000000     0.062030000000     0.509104   
Cd9      Cd     0.685090000000     0.353570000000     0.434660000000     0.508233   
Cd10     Cd     0.886440000000     0.151990000000     0.551020000000     0.508212   
Cd11     Cd     0.885810000000     0.154620000000     0.923870000000     0.509184   
Cd12     Cd     0.685430000000     0.352330000000     0.061780000000     0.509151   
Cd13     Cd     0.685130000000     0.853340000000     0.434640000000     0.508256   
Cd14     Cd     0.886460000000     0.651760000000     0.551020000000     0.508229   
Cd15     Cd     0.885850000000     0.654580000000     0.923850000000     0.509149   
Cd16     Cd     0.685490000000     0.852300000000     0.061750000000     0.509147   
H1       H      0.009190000000     0.297440000000     0.023320000000     0.049748   
H2       H      0.030640000000     0.228480000000     0.056270000000     0.0497129  
H3       H      0.023400000000     0.175160000000     0.997810000000     0.0540682  
H4       H      0.046940000000     0.331290000000     0.988480000000     0.0540986  
H5       H      0.485760000000     0.285770000000     0.951450000000     0.0539149  
H6       H      0.039640000000     0.277980000000     0.930010000000     0.0497215  
H7       H      0.081180000000     0.221080000000     0.041540000000     0.0540122  
H8       H      0.061150000000     0.209030000000     0.962980000000     0.0497452  
H9       H      0.253600000000     0.473620000000     0.937640000000     0.0503742  
H10      H      0.318890000000     0.457260000000     0.985360000000     0.0497111  
H11      H      0.359820000000     0.022370000000     0.014700000000     0.0538431  
H12      H      0.210780000000     0.482490000000     0.970600000000     0.0538655  
H13      H      0.257060000000     0.048520000000     0.940530000000     0.0541617  
H14      H      0.251620000000     0.047770000000     0.000560000000     0.0497634  
H15      H      0.313360000000     0.456640000000     0.045380000000     0.0541709  
H16      H      0.317200000000     0.031200000000     0.048010000000     0.0504589  
H17      H      0.330350000000     0.287010000000     0.030050000000     0.0500817  
H18      H      0.303730000000     0.298120000000     0.947760000000     0.050094   
H19      H      0.275650000000     0.229850000000     0.912650000000     0.0550812  
H20      H      0.292070000000     0.273350000000     0.073750000000     0.0552097  
H21      H      0.318750000000     0.211860000000     0.046840000000     0.0534836  
H22      H      0.263750000000     0.205230000000     0.038380000000     0.0498288  
H23      H      0.248650000000     0.291200000000     0.939670000000     0.0534806  
H24      H      0.237440000000     0.216140000000     0.956410000000     0.049696   
H25      H      0.345800000000     0.163520000000     0.740800000000     0.0534547  
H26      H      0.378880000000     0.092940000000     0.745400000000     0.0512506  
H27      H      0.437580000000     0.106370000000     0.694690000000     0.0537797  
H28      H      0.370110000000     0.206640000000     0.776240000000     0.0559973  
H29      H      0.391250000000     0.219780000000     0.697090000000     0.0546935  
H30      H      0.434590000000     0.216760000000     0.732520000000     0.048605   
H31      H      0.424800000000     0.098700000000     0.779250000000     0.0534322  
H32      H      0.464720000000     0.149710000000     0.728240000000     0.0479004  
H33      H      0.106460000000     0.356330000000     0.258350000000     0.0479458  
H34      H      0.137970000000     0.289990000000     0.254070000000     0.0487802  
H35      H      0.202770000000     0.301390000000     0.210640000000     0.0560458  
H36      H      0.132980000000     0.399930000000     0.291950000000     0.0537796  
H37      H      0.145790000000     0.407820000000     0.207390000000     0.0533991  
H38      H      0.191730000000     0.414280000000     0.241310000000     0.0511234  
H39      H      0.181460000000     0.287800000000     0.289620000000     0.0547553  
H40      H      0.226090000000     0.344860000000     0.246130000000     0.0532796  
H41      H      0.007190000000     0.261320000000     0.434330000000     0.0492271  
H42      H      0.047710000000     0.203240000000     0.458700000000     0.0503145  
H43      H      0.101910000000     0.233320000000     0.513120000000     0.0533765  
H44      H      0.469350000000     0.273780000000     0.474390000000     0.0533648  
H45      H      0.035950000000     0.327490000000     0.473180000000     0.0540607  
H46      H      0.524560000000     0.303210000000     0.527920000000     0.050328   
H47      H      0.035170000000     0.178610000000     0.512590000000     0.0540381  
H48      H      0.063940000000     0.244760000000     0.551460000000     0.0493711  
H49      H      0.234690000000     0.027210000000     0.506310000000     0.0503063  
H50      H      0.280330000000     0.530130000000     0.432910000000     0.0503234  
H51      H      0.351800000000     0.029620000000     0.452510000000     0.0543938  
H52      H      0.218440000000     0.477510000000     0.534280000000     0.0545235  
H53      H      0.278010000000     0.025580000000     0.572510000000     0.0540688  
H54      H      0.290240000000     0.476730000000     0.554020000000     0.0503653  
H55      H      0.292060000000     0.481880000000     0.413790000000     0.0541753  
H56      H      0.335490000000     0.479280000000     0.480190000000     0.0504106  
H57      H      0.242630000000     0.231980000000     0.541380000000     0.050668   
H58      H      0.249280000000     0.206080000000     0.458640000000     0.0502197  
H59      H      0.282690000000     0.265310000000     0.410640000000     0.0547502  
H60      H      0.288270000000     0.241820000000     0.576290000000     0.0547511  
H61      H      0.271770000000     0.308040000000     0.546720000000     0.0539544  
H62      H      0.321620000000     0.301070000000     0.528300000000     0.05022    
H63      H      0.299110000000     0.199070000000     0.440200000000     0.053929   
H64      H      0.328290000000     0.275130000000     0.445600000000     0.0506764  
H65      H      0.009230000000     0.797470000000     0.023100000000     0.049735   
H66      H      0.030570000000     0.728550000000     0.056290000000     0.0497012  
H67      H      0.023370000000     0.675110000000     0.997950000000     0.0540975  
H68      H      0.047060000000     0.831240000000     0.988260000000     0.0540859  
H69      H      0.485700000000     0.785770000000     0.951650000000     0.0538899  
H70      H      0.039810000000     0.777810000000     0.929920000000     0.049734   
H71      H      0.081110000000     0.721080000000     0.041700000000     0.0540125  
H72      H      0.061190000000     0.708890000000     0.963130000000     0.0497742  
H73      H      0.253420000000     0.973800000000     0.937670000000     0.0503744  
H74      H      0.318810000000     0.957240000000     0.985040000000     0.0496971  
H75      H      0.359760000000     0.522490000000     0.014910000000     0.0538395  
H76      H      0.210710000000     0.982610000000     0.970840000000     0.0538782  
H77      H      0.257170000000     0.548330000000     0.940200000000     0.0541694  
H78      H      0.251560000000     0.547750000000     0.000220000000     0.0497747  
H79      H      0.313450000000     0.956460000000     0.045090000000     0.054153   
H80      H      0.317030000000     0.531370000000     0.048020000000     0.0504559  
H81      H      0.330320000000     0.786900000000     0.029970000000     0.0500823  
H82      H      0.303680000000     0.798030000000     0.947680000000     0.0500886  
H83      H      0.275630000000     0.729760000000     0.912570000000     0.0550722  
H84      H      0.292040000000     0.773240000000     0.073670000000     0.0552026  
H85      H      0.318690000000     0.711740000000     0.046770000000     0.0534863  
H86      H      0.263690000000     0.705130000000     0.038280000000     0.0498214  
H87      H      0.248610000000     0.791100000000     0.939590000000     0.053451   
H88      H      0.237410000000     0.716040000000     0.956320000000     0.0496831  
H89      H      0.345910000000     0.663490000000     0.740770000000     0.0534739  
H90      H      0.379000000000     0.592900000000     0.745400000000     0.0512412  
H91      H      0.437700000000     0.606310000000     0.694700000000     0.0537957  
H92      H      0.370250000000     0.706640000000     0.776180000000     0.0559943  
H93      H      0.391360000000     0.719710000000     0.697010000000     0.054684   
H94      H      0.434710000000     0.716720000000     0.732430000000     0.0485857  
H95      H      0.424910000000     0.598680000000     0.779250000000     0.0534169  
H96      H      0.464830000000     0.649680000000     0.728220000000     0.0479009  
H97      H      0.106530000000     0.856160000000     0.258310000000     0.0479718  
H98      H      0.138110000000     0.789860000000     0.253960000000     0.0488006  
H99      H      0.202940000000     0.801370000000     0.210570000000     0.0560584  
H100     H      0.133000000000     0.899740000000     0.291950000000     0.0537922  
H101     H      0.145840000000     0.907710000000     0.207400000000     0.0533795  
H102     H      0.191770000000     0.914190000000     0.241340000000     0.0510816  
H103     H      0.181590000000     0.787680000000     0.289520000000     0.0547666  
H104     H      0.226190000000     0.844830000000     0.246100000000     0.0532786  
H105     H      0.007180000000     0.761110000000     0.434320000000     0.0492417  
H106     H      0.047700000000     0.703020000000     0.458660000000     0.0503136  
H107     H      0.101920000000     0.733080000000     0.513080000000     0.0533581  
H108     H      0.469370000000     0.773560000000     0.474330000000     0.0533602  
H109     H      0.035970000000     0.827270000000     0.473150000000     0.0540546  
H110     H      0.524550000000     0.803020000000     0.527860000000     0.050342   
H111     H      0.035180000000     0.678380000000     0.512560000000     0.0540331  
H112     H      0.063960000000     0.744530000000     0.551430000000     0.0493513  
H113     H      0.235040000000     0.527500000000     0.506680000000     0.0503571  
H114     H      0.280240000000     0.029710000000     0.432560000000     0.0502701  
H115     H      0.352140000000     0.529260000000     0.452590000000     0.0545519  
H116     H      0.218400000000     0.977310000000     0.534180000000     0.0545416  
H117     H      0.278500000000     0.525000000000     0.573050000000     0.0542067  
H118     H      0.290550000000     0.977460000000     0.554810000000     0.0501527  
H119     H      0.292320000000     0.981460000000     0.413940000000     0.0542039  
H120     H      0.336370000000     0.979900000000     0.480520000000     0.0502021  
H121     H      0.242520000000     0.731590000000     0.541350000000     0.0506569  
H122     H      0.249190000000     0.705700000000     0.458630000000     0.0502207  
H123     H      0.282600000000     0.764940000000     0.410640000000     0.0547571  
H124     H      0.288140000000     0.741420000000     0.576280000000     0.0547572  
H125     H      0.271660000000     0.807650000000     0.546730000000     0.0539564  
H126     H      0.321520000000     0.800680000000     0.528320000000     0.0502363  
H127     H      0.299020000000     0.698690000000     0.440200000000     0.0539422  
H128     H      0.328210000000     0.774750000000     0.445600000000     0.0506899  
H129     H      0.510380000000     0.297550000000     0.027650000000     0.0495284  
H130     H      0.533730000000     0.228060000000     0.057490000000     0.0495388  
H131     H      0.522840000000     0.175660000000     0.999020000000     0.0539571  
H132     H      0.546280000000     0.331510000000     0.991030000000     0.0540321  
H133     H      0.989110000000     0.285350000000     0.944800000000     0.0541515  
H134     H      0.535010000000     0.278880000000     0.931340000000     0.0496823  
H135     H      0.583380000000     0.221050000000     0.038840000000     0.0540119  
H136     H      0.558730000000     0.208600000000     0.961560000000     0.0496886  
H137     H      0.754150000000     0.474270000000     0.937600000000     0.0504342  
H138     H      0.819390000000     0.458450000000     0.986080000000     0.0497132  
H139     H      0.859730000000     0.024130000000     0.015760000000     0.0539293  
H140     H      0.711120000000     0.483150000000     0.970190000000     0.0538532  
H141     H      0.757580000000     0.048770000000     0.939310000000     0.0541674  
H142     H      0.751450000000     0.048630000000     0.999250000000     0.0497414  
H143     H      0.813440000000     0.458140000000     0.046050000000     0.0541847  
H144     H      0.816540000000     0.033010000000     0.048100000000     0.0504332  
H145     H      0.832360000000     0.289500000000     0.029270000000     0.0498203  
H146     H      0.805550000000     0.300270000000     0.947290000000     0.0499238  
H147     H      0.777530000000     0.231980000000     0.912210000000     0.0551447  
H148     H      0.794310000000     0.275790000000     0.073190000000     0.0551353  
H149     H      0.821290000000     0.214470000000     0.046230000000     0.0534972  
H150     H      0.766200000000     0.207470000000     0.038190000000     0.0500411  
H151     H      0.750460000000     0.293260000000     0.939210000000     0.0535384  
H152     H      0.739390000000     0.218210000000     0.956040000000     0.0499565  
H153     H      0.845450000000     0.162330000000     0.739750000000     0.0533648  
H154     H      0.879160000000     0.092370000000     0.744680000000     0.051192   
H155     H      0.938040000000     0.106240000000     0.694220000000     0.0538048  
H156     H      0.869130000000     0.205650000000     0.775250000000     0.0560394  
H157     H      0.890640000000     0.219020000000     0.696290000000     0.054753   
H158     H      0.933930000000     0.216410000000     0.731950000000     0.0487532  
H159     H      0.924980000000     0.098480000000     0.778740000000     0.0534458  
H160     H      0.964760000000     0.149720000000     0.727850000000     0.0479674  
H161     H      0.606750000000     0.356270000000     0.257900000000     0.0479369  
H162     H      0.637780000000     0.289720000000     0.253480000000     0.0487036  
H163     H      0.702590000000     0.300850000000     0.210120000000     0.056031   
H164     H      0.633340000000     0.399660000000     0.291740000000     0.0537953  
H165     H      0.646450000000     0.407860000000     0.207280000000     0.0534275  
H166     H      0.692280000000     0.413880000000     0.241330000000     0.0511922  
H167     H      0.681130000000     0.287120000000     0.289070000000     0.0547566  
H168     H      0.726160000000     0.344060000000     0.245810000000     0.0533778  
H169     H      0.506470000000     0.261890000000     0.435240000000     0.0493813  
H170     H      0.546230000000     0.202350000000     0.458490000000     0.0501473  
H171     H      0.601780000000     0.232440000000     0.511960000000     0.0533838  
H172     H      0.969210000000     0.272770000000     0.472650000000     0.0533578  
H173     H      0.536580000000     0.327790000000     0.473920000000     0.054054   
H174     H      0.023400000000     0.302870000000     0.527090000000     0.0503228  
H175     H      0.534560000000     0.178730000000     0.512840000000     0.0539329  
H176     H      0.564660000000     0.244290000000     0.551160000000     0.0493071  
H177     H      0.735480000000     0.026400000000     0.505990000000     0.0503663  
H178     H      0.780930000000     0.529260000000     0.432420000000     0.0503733  
H179     H      0.852470000000     0.028770000000     0.451950000000     0.0544028  
H180     H      0.719190000000     0.476670000000     0.533920000000     0.0545335  
H181     H      0.778880000000     0.024620000000     0.572120000000     0.0540723  
H182     H      0.791040000000     0.475820000000     0.553450000000     0.0503424  
H183     H      0.792640000000     0.481000000000     0.413310000000     0.0542066  
H184     H      0.836180000000     0.478450000000     0.479610000000     0.0503912  
H185     H      0.742860000000     0.231120000000     0.540850000000     0.0506387  
H186     H      0.749370000000     0.205150000000     0.458150000000     0.0502266  
H187     H      0.782740000000     0.264330000000     0.410070000000     0.0547531  
H188     H      0.788510000000     0.240920000000     0.575720000000     0.0547209  
H189     H      0.772080000000     0.307170000000     0.546160000000     0.053923   
H190     H      0.821880000000     0.300130000000     0.527670000000     0.0502301  
H191     H      0.799160000000     0.198080000000     0.439620000000     0.0539523  
H192     H      0.828410000000     0.274140000000     0.444930000000     0.05069    
H193     H      0.510450000000     0.797410000000     0.027800000000     0.0495747  
H194     H      0.533930000000     0.727890000000     0.057380000000     0.049552   
H195     H      0.522970000000     0.675610000000     0.998790000000     0.0539585  
H196     H      0.546260000000     0.831470000000     0.991190000000     0.0540688  
H197     H      0.989270000000     0.785260000000     0.944560000000     0.054159   
H198     H      0.534930000000     0.778970000000     0.931380000000     0.0496638  
H199     H      0.583560000000     0.720970000000     0.038580000000     0.0540133  
H200     H      0.558770000000     0.708660000000     0.961330000000     0.0496979  
H201     H      0.754340000000     0.974100000000     0.937580000000     0.0504339  
H202     H      0.819500000000     0.958510000000     0.986400000000     0.0497042  
H203     H      0.859790000000     0.523960000000     0.015530000000     0.053942   
H204     H      0.711190000000     0.982990000000     0.969960000000     0.0538451  
H205     H      0.757510000000     0.548960000000     0.939590000000     0.054172   
H206     H      0.751550000000     0.548670000000     0.999560000000     0.0497506  
H207     H      0.813380000000     0.958350000000     0.046350000000     0.0541642  
H208     H      0.816730000000     0.532820000000     0.048070000000     0.050444   
H209     H      0.832560000000     0.789640000000     0.029240000000     0.0498213  
H210     H      0.805760000000     0.800390000000     0.947280000000     0.0499008  
H211     H      0.777720000000     0.732110000000     0.912200000000     0.0551806  
H212     H      0.794520000000     0.775940000000     0.073170000000     0.0551615  
H213     H      0.821500000000     0.714620000000     0.046210000000     0.0534737  
H214     H      0.766400000000     0.707600000000     0.038190000000     0.0500322  
H215     H      0.750670000000     0.793400000000     0.939180000000     0.0535317  
H216     H      0.739580000000     0.718350000000     0.956020000000     0.0500018  
H217     H      0.845430000000     0.662110000000     0.739700000000     0.0533909  
H218     H      0.879210000000     0.592220000000     0.744680000000     0.0511717  
H219     H      0.938120000000     0.606150000000     0.694240000000     0.0538414  
H220     H      0.869030000000     0.705460000000     0.775210000000     0.0560762  
H221     H      0.890580000000     0.718850000000     0.696250000000     0.054735   
H222     H      0.933870000000     0.716290000000     0.731940000000     0.0487426  
H223     H      0.925030000000     0.598380000000     0.778750000000     0.0534297  
H224     H      0.964790000000     0.649660000000     0.727870000000     0.0479947  
H225     H      0.606760000000     0.856110000000     0.257900000000     0.0479122  
H226     H      0.637770000000     0.789550000000     0.253440000000     0.0486764  
H227     H      0.702540000000     0.800670000000     0.210060000000     0.0560449  
H228     H      0.633370000000     0.899490000000     0.291750000000     0.0537723  
H229     H      0.646470000000     0.907710000000     0.207300000000     0.0534498  
H230     H      0.692300000000     0.913710000000     0.241330000000     0.0512149  
H231     H      0.681120000000     0.786920000000     0.289020000000     0.0547367  
H232     H      0.726160000000     0.843860000000     0.245760000000     0.0533998  
H233     H      0.506500000000     0.761670000000     0.435200000000     0.0493791  
H234     H      0.546270000000     0.702150000000     0.458480000000     0.0501553  
H235     H      0.601790000000     0.732250000000     0.511990000000     0.053405   
H236     H      0.969220000000     0.772570000000     0.472660000000     0.0533712  
H237     H      0.536600000000     0.827570000000     0.473850000000     0.0540752  
H238     H      0.023430000000     0.802660000000     0.527060000000     0.0503214  
H239     H      0.534590000000     0.678530000000     0.512820000000     0.0539464  
H240     H      0.564660000000     0.744100000000     0.551160000000     0.0493297  
H241     H      0.735780000000     0.526670000000     0.506330000000     0.0503882  
H242     H      0.780890000000     0.028860000000     0.432090000000     0.0503177  
H243     H      0.852770000000     0.528440000000     0.452000000000     0.0545544  
H244     H      0.719180000000     0.976490000000     0.533830000000     0.0545761  
H245     H      0.779330000000     0.524060000000     0.572630000000     0.0541938  
H246     H      0.791370000000     0.976520000000     0.554250000000     0.0501419  
H247     H      0.792920000000     0.980580000000     0.413470000000     0.0542322  
H248     H      0.837070000000     0.979040000000     0.479950000000     0.0501829  
H249     H      0.742750000000     0.730750000000     0.540810000000     0.0506336  
H250     H      0.749290000000     0.704790000000     0.458130000000     0.0502236  
H251     H      0.782660000000     0.763980000000     0.410070000000     0.0547517  
H252     H      0.788390000000     0.740530000000     0.575710000000     0.0547341  
H253     H      0.771990000000     0.806790000000     0.546160000000     0.0539694  
H254     H      0.821790000000     0.799750000000     0.527690000000     0.0502774  
H255     H      0.799070000000     0.697720000000     0.439620000000     0.0539573  
H256     H      0.828330000000     0.773770000000     0.444920000000     0.0506944  
N1       N      0.502120000000     0.227720000000     0.970100000000    -0.150365   
N2       N      0.066430000000     0.279090000000     0.019180000000    -0.150411   
N3       N      0.310650000000     0.041180000000     0.978550000000    -0.150354   
N4       N      0.259840000000     0.463910000000     0.007200000000    -0.150356   
N5       N      0.298630000000     0.217590000000     0.978330000000    -0.152062   
N6       N      0.269230000000     0.285830000000     0.008060000000    -0.152012   
N7       N      0.414710000000     0.163220000000     0.691300000000    -0.151125   
N8       N      0.393320000000     0.149810000000     0.781990000000    -0.150567   
N9       N      0.178150000000     0.357380000000     0.204720000000    -0.150614   
N10      N      0.156800000000     0.343640000000     0.295380000000    -0.151085   
N11      N      0.072670000000     0.283800000000     0.493880000000    -0.151318   
N12      N      0.498170000000     0.222770000000     0.492760000000    -0.151395   
N13      N      0.318740000000     0.029920000000     0.515010000000    -0.15129    
N14      N      0.251580000000     0.477260000000     0.471690000000    -0.151238   
N15      N      0.276010000000     0.290090000000     0.477070000000    -0.151363   
N16      N      0.294890000000     0.217020000000     0.509860000000    -0.151422   
N17      N      0.502150000000     0.727700000000     0.970080000000    -0.1504     
N18      N      0.066460000000     0.779070000000     0.019140000000    -0.15046    
N19      N      0.310660000000     0.541160000000     0.978490000000    -0.150343   
N20      N      0.259840000000     0.963890000000     0.007160000000    -0.150346   
N21      N      0.298600000000     0.717490000000     0.978250000000    -0.152093   
N22      N      0.269200000000     0.785740000000     0.007990000000    -0.152006   
N23      N      0.414810000000     0.663150000000     0.691260000000    -0.151133   
N24      N      0.393440000000     0.649790000000     0.781960000000    -0.150562   
N25      N      0.178250000000     0.857320000000     0.204690000000    -0.15061    
N26      N      0.156870000000     0.843480000000     0.295330000000    -0.151089   
N27      N      0.072690000000     0.783570000000     0.493840000000    -0.151357   
N28      N      0.498190000000     0.722560000000     0.492720000000    -0.151381   
N29      N      0.319000000000     0.529550000000     0.515180000000    -0.151195   
N30      N      0.251630000000     0.977010000000     0.471650000000    -0.151093   
N31      N      0.275930000000     0.789720000000     0.477070000000    -0.151395   
N32      N      0.294800000000     0.716640000000     0.509860000000    -0.151396   
N33      N      0.003890000000     0.227350000000     0.967110000000    -0.150493   
N34      N      0.567240000000     0.279180000000     0.019390000000    -0.150313   
N35      N      0.810830000000     0.042170000000     0.978360000000    -0.150344   
N36      N      0.760090000000     0.464930000000     0.007270000000    -0.150378   
N37      N      0.800630000000     0.219760000000     0.977850000000    -0.152025   
N38      N      0.771070000000     0.287900000000     0.007590000000    -0.151963   
N39      N      0.914700000000     0.162810000000     0.690660000000    -0.151092   
N40      N      0.893070000000     0.149270000000     0.781260000000    -0.150576   
N41      N      0.678470000000     0.357160000000     0.204440000000    -0.150554   
N42      N      0.656860000000     0.343180000000     0.295000000000    -0.151116   
N43      N      0.572970000000     0.283510000000     0.493730000000    -0.151268   
N44      N      0.998450000000     0.222300000000     0.491930000000    -0.151311   
N45      N      0.819490000000     0.029050000000     0.514500000000    -0.151284   
N46      N      0.752230000000     0.476420000000     0.471260000000    -0.151193   
N47      N      0.776210000000     0.289180000000     0.476500000000    -0.151436   
N48      N      0.795070000000     0.216100000000     0.509280000000    -0.15139    
N49      N      0.003960000000     0.727280000000     0.967070000000    -0.150476   
N50      N      0.567320000000     0.779110000000     0.019350000000    -0.150271   
N51      N      0.810840000000     0.542170000000     0.978390000000    -0.150383   
N52      N      0.760110000000     0.964940000000     0.007310000000    -0.150355   
N53      N      0.800820000000     0.719870000000     0.977830000000    -0.152117   
N54      N      0.771260000000     0.788030000000     0.007570000000    -0.151963   
N55      N      0.914710000000     0.662680000000     0.690650000000    -0.151121   
N56      N      0.893060000000     0.649130000000     0.781250000000    -0.150573   
N57      N      0.678470000000     0.857000000000     0.204420000000    -0.150552   
N58      N      0.656880000000     0.843000000000     0.294980000000    -0.151163   
N59      N      0.572980000000     0.783310000000     0.493720000000    -0.151231   
N60      N      0.998450000000     0.722090000000     0.491920000000    -0.151272   
N61      N      0.819710000000     0.528700000000     0.514650000000    -0.151232   
N62      N      0.752300000000     0.976180000000     0.471230000000    -0.151101   
N63      N      0.776140000000     0.788820000000     0.476500000000    -0.151414   
N64      N      0.794980000000     0.715730000000     0.509280000000    -0.151422   
O1       O      0.183700000000     0.322850000000     0.360580000000    -0.244682   
O2       O      0.198040000000     0.418940000000     0.482290000000    -0.247918   
O3       O      0.235970000000     0.311550000000     0.422420000000    -0.241241   
O4       O      0.110580000000     0.343610000000     0.459100000000    -0.248183   
O5       O      0.141730000000     0.294480000000     0.475360000000    -0.252066   
O6       O      0.229840000000     0.331880000000     0.490540000000    -0.248636   
O7       O      0.156020000000     0.376470000000     0.364070000000    -0.24786    
O8       O      0.236700000000     0.420360000000     0.423970000000    -0.252684   
O9       O      0.387830000000     0.184310000000     0.626240000000    -0.244844   
O10      O      0.429270000000     0.212530000000     0.511790000000    -0.252056   
O11      O      0.334840000000     0.195420000000     0.564510000000    -0.241279   
O12      O      0.333810000000     0.086760000000     0.562800000000    -0.252638   
O13      O      0.372550000000     0.088020000000     0.504560000000    -0.247833   
O14      O      0.341060000000     0.175250000000     0.496340000000    -0.248684   
O15      O      0.414620000000     0.130100000000     0.622660000000    -0.247923   
O16      O      0.460000000000     0.162870000000     0.527140000000    -0.248236   
O17      O      0.331260000000     0.193660000000     0.918950000000    -0.240659   
O18      O      0.456180000000     0.163490000000     0.958920000000    -0.246152   
O19      O      0.377560000000     0.178000000000     0.848630000000    -0.244847   
O20      O      0.322940000000     0.097600000000     0.930360000000    -0.251547   
O21      O      0.374610000000     0.087260000000     0.969190000000    -0.244702   
O22      O      0.404410000000     0.123870000000     0.852300000000    -0.250957   
O23      O      0.352410000000     0.184090000000     0.985930000000    -0.251998   
O24      O      0.437400000000     0.219480000000     0.938100000000    -0.250931   
O25      O      0.237650000000     0.310960000000     0.067460000000    -0.240757   
O26      O      0.195730000000     0.418220000000     0.016960000000    -0.244787   
O27      O      0.193640000000     0.328890000000     0.138160000000    -0.244595   
O28      O      0.131240000000     0.286820000000     0.050840000000    -0.251259   
O29      O      0.113760000000     0.342820000000     0.027860000000    -0.246075   
O30      O      0.165970000000     0.382450000000     0.134310000000    -0.25093    
O31      O      0.216320000000     0.320540000000     0.000580000000    -0.252249   
O32      O      0.247360000000     0.407750000000     0.055750000000    -0.251635   
O33      O      0.183760000000     0.822650000000     0.360520000000    -0.244692   
O34      O      0.198040000000     0.918720000000     0.482210000000    -0.247948   
O35      O      0.235950000000     0.811230000000     0.422400000000    -0.241169   
O36      O      0.110610000000     0.843370000000     0.459060000000    -0.248205   
O37      O      0.141740000000     0.794230000000     0.475310000000    -0.252119   
O38      O      0.229820000000     0.831570000000     0.490530000000    -0.248533   
O39      O      0.156040000000     0.876240000000     0.364050000000    -0.247807   
O40      O      0.236820000000     0.920050000000     0.424000000000    -0.252655   
O41      O      0.387900000000     0.684170000000     0.626190000000    -0.244841   
O42      O      0.429280000000     0.712300000000     0.511740000000    -0.252056   
O43      O      0.334800000000     0.695100000000     0.564490000000    -0.241365   
O44      O      0.334000000000     0.586440000000     0.562910000000    -0.252565   
O45      O      0.372620000000     0.587790000000     0.504560000000    -0.247859   
O46      O      0.341040000000     0.674940000000     0.496320000000    -0.248686   
O47      O      0.414700000000     0.629960000000     0.622660000000    -0.247878   
O48      O      0.460040000000     0.662670000000     0.527120000000    -0.248295   
O49      O      0.331280000000     0.693600000000     0.918880000000    -0.240657   
O50      O      0.456250000000     0.663470000000     0.958800000000    -0.246251   
O51      O      0.377640000000     0.677990000000     0.848590000000    -0.244784   
O52      O      0.323030000000     0.597490000000     0.930180000000    -0.251532   
O53      O      0.374610000000     0.587300000000     0.969260000000    -0.244747   
O54      O      0.404490000000     0.623860000000     0.852280000000    -0.250954   
O55      O      0.352400000000     0.684030000000     0.985870000000    -0.252      
O56      O      0.437390000000     0.719460000000     0.938180000000    -0.250992   
O57      O      0.237650000000     0.810890000000     0.067400000000    -0.240631   
O58      O      0.195720000000     0.918260000000     0.017050000000    -0.244835   
O59      O      0.193730000000     0.828860000000     0.138110000000    -0.244565   
O60      O      0.131220000000     0.786790000000     0.050900000000    -0.251244   
O61      O      0.113830000000     0.842780000000     0.027740000000    -0.246076   
O62      O      0.166010000000     0.882400000000     0.134300000000    -0.250842   
O63      O      0.216300000000     0.820480000000     0.000520000000    -0.252163   
O64      O      0.247430000000     0.907630000000     0.055590000000    -0.251624   
O65      O      0.683730000000     0.322150000000     0.360090000000    -0.24471    
O66      O      0.698610000000     0.418180000000     0.481900000000    -0.247818   
O67      O      0.736190000000     0.310730000000     0.421900000000    -0.241198   
O68      O      0.611100000000     0.343330000000     0.459170000000    -0.248186   
O69      O      0.641850000000     0.293690000000     0.474580000000    -0.252033   
O70      O      0.730140000000     0.331060000000     0.490040000000    -0.248716   
O71      O      0.656370000000     0.375980000000     0.363740000000    -0.247942   
O72      O      0.737160000000     0.419570000000     0.423480000000    -0.252625   
O73      O      0.887900000000     0.183680000000     0.625440000000    -0.244705   
O74      O      0.929420000000     0.211680000000     0.510560000000    -0.252082   
O75      O      0.835230000000     0.194680000000     0.563840000000    -0.241208   
O76      O      0.834450000000     0.085950000000     0.562210000000    -0.252685   
O77      O      0.873130000000     0.087280000000     0.503910000000    -0.247924   
O78      O      0.841260000000     0.174360000000     0.495690000000    -0.248571   
O79      O      0.915090000000     0.129720000000     0.622070000000    -0.247815   
O80      O      0.960580000000     0.162580000000     0.526880000000    -0.24822    
O81      O      0.832440000000     0.194910000000     0.918420000000    -0.240784   
O82      O      0.956670000000     0.163580000000     0.958230000000    -0.246071   
O83      O      0.877390000000     0.177730000000     0.847770000000    -0.244611   
O84      O      0.823420000000     0.098160000000     0.929590000000    -0.251622   
O85      O      0.874810000000     0.088220000000     0.969150000000    -0.244759   
O86      O      0.904720000000     0.123940000000     0.851710000000    -0.250885   
O87      O      0.853930000000     0.185560000000     0.985290000000    -0.252197   
O88      O      0.939120000000     0.219580000000     0.935350000000    -0.251188   
O89      O      0.739010000000     0.312330000000     0.067090000000    -0.240633   
O90      O      0.696190000000     0.418720000000     0.016430000000    -0.244816   
O91      O      0.694060000000     0.328940000000     0.137740000000    -0.244628   
O92      O      0.632750000000     0.287110000000     0.049320000000    -0.250971   
O93      O      0.614010000000     0.343180000000     0.028730000000    -0.246154   
O94      O      0.666660000000     0.382710000000     0.134160000000    -0.250872   
O95      O      0.717530000000     0.321790000000     0.000220000000    -0.251892   
O96      O      0.747600000000     0.408980000000     0.056080000000    -0.251722   
O97      O      0.683740000000     0.821940000000     0.360050000000    -0.244805   
O98      O      0.698630000000     0.917980000000     0.481830000000    -0.247876   
O99      O      0.736180000000     0.810440000000     0.421890000000    -0.241228   
O100     O      0.611120000000     0.843110000000     0.459140000000    -0.248164   
O101     O      0.641870000000     0.793480000000     0.474580000000    -0.252012   
O102     O      0.730120000000     0.830760000000     0.490030000000    -0.248682   
O103     O      0.656410000000     0.875780000000     0.363730000000    -0.248022   
O104     O      0.737290000000     0.919270000000     0.423530000000    -0.25267    
O105     O      0.887890000000     0.683480000000     0.625420000000    -0.244795   
O106     O      0.929420000000     0.711470000000     0.510550000000    -0.252062   
O107     O      0.835180000000     0.694380000000     0.563830000000    -0.241238   
O108     O      0.834610000000     0.585640000000     0.562310000000    -0.25266    
O109     O      0.873170000000     0.587060000000     0.503910000000    -0.247941   
O110     O      0.841220000000     0.674050000000     0.495690000000    -0.248666   
O111     O      0.915140000000     0.629570000000     0.622080000000    -0.247878   
O112     O      0.960590000000     0.662370000000     0.526870000000    -0.248316   
O113     O      0.832550000000     0.694950000000     0.918410000000    -0.240839   
O114     O      0.956690000000     0.663530000000     0.958300000000    -0.246092   
O115     O      0.877370000000     0.677620000000     0.847740000000    -0.24453    
O116     O      0.823380000000     0.598240000000     0.929730000000    -0.25155    
O117     O      0.874850000000     0.588120000000     0.969040000000    -0.244769   
O118     O      0.904760000000     0.623850000000     0.851700000000    -0.250787   
O119     O      0.854050000000     0.685600000000     0.985270000000    -0.252337   
O120     O      0.939230000000     0.719510000000     0.935210000000    -0.251151   
O121     O      0.739140000000     0.812370000000     0.067070000000    -0.2407     
O122     O      0.696240000000     0.918630000000     0.016330000000    -0.244778   
O123     O      0.694070000000     0.828830000000     0.137700000000    -0.244621   
O124     O      0.632870000000     0.787060000000     0.049170000000    -0.25104    
O125     O      0.614030000000     0.843140000000     0.028800000000    -0.24609    
O126     O      0.666690000000     0.882610000000     0.134160000000    -0.250897   
O127     O      0.717660000000     0.821830000000     0.000200000000    -0.251973   
O128     O      0.747580000000     0.909060000000     0.056220000000    -0.251634   


