data_structure

_audit_creation_method RASPA-1.0
_audit_creation_date 2023-5-22
_audit_author_name 'Poobodin Mano'

_cell_length_a    49.958
_cell_length_b    51.8571
_cell_length_c    52.7818
_cell_angle_alpha 90
_cell_angle_beta  90
_cell_angle_gamma 90
_cell_volume      136741

_symmetry_cell_setting          triclinic
_symmetry_space_group_name_Hall 'P 1'
_symmetry_space_group_name_H-M  'P 1'
_symmetry_Int_Tables_number     1

_symmetry_equiv_pos_as_xyz 'x,y,z'

loop_
_atom_site_label
_atom_site_type_symbol
_atom_site_fract_x
_atom_site_fract_y
_atom_site_fract_z
_atom_site_charge
C1       C      0.455410000000     0.200110000000     0.436170000000     0.341409   
C2       C      0.395900000000     0.129190000000     0.436130000000     0.342534   
C3       C      0.391020000000     0.193900000000     0.372350000000     0.342063   
C4       C      0.462040000000     0.130980000000     0.376880000000     0.340888   
C5       C      0.025490000000     0.253980000000     0.994700000000     0.340278   
C6       C      0.091740000000     0.258240000000     0.059050000000     0.342732   
C7       C      0.090280000000     0.317690000000     0.991240000000     0.342494   
C8       C      0.023900000000     0.322720000000     0.054150000000     0.340719   
C9       C      0.154070000000     0.387430000000     0.444530000000     0.341613   
C10      C      0.222140000000     0.448700000000     0.443940000000     0.340181   
C11      C      0.220100000000     0.384220000000     0.381360000000     0.341338   
C12      C      0.153130000000     0.449600000000     0.379790000000     0.341276   
C13      C      0.342670000000     0.075970000000     0.008740000000     0.342094   
C14      C      0.276840000000     0.012510000000     0.007930000000     0.339346   
C15      C      0.349660000000     0.009580000000     0.068350000000     0.342352   
C16      C      0.280640000000     0.071790000000     0.075300000000     0.341523   
C17      C      0.152730000000     0.138360000000     0.193640000000     0.341777   
C18      C      0.142620000000     0.196280000000     0.126460000000     0.340491   
C19      C      0.218910000000     0.198560000000     0.184580000000     0.341346   
C20      C      0.212080000000     0.137290000000     0.120940000000     0.341185   
C21      C      0.340300000000     0.262780000000     0.311190000000     0.340166   
C22      C      0.274570000000     0.327330000000     0.311340000000     0.341443   
C23      C      0.339290000000     0.322560000000     0.245110000000     0.340577   
C24      C      0.269280000000     0.263060000000     0.249250000000     0.343087   
C25      C      0.471820000000     0.379190000000     0.125650000000     0.340609   
C26      C      0.405300000000     0.443460000000     0.129030000000     0.341162   
C27      C      0.408730000000     0.384210000000     0.194630000000     0.341462   
C28      C      0.479000000000     0.441690000000     0.188970000000     0.341184   
C29      C      0.027020000000     0.008980000000     0.252900000000     0.341862   
C30      C      0.026000000000     0.073800000000     0.313980000000     0.340267   
C31      C      0.097500000000     0.013100000000     0.315740000000     0.340108   
C32      C      0.091080000000     0.073000000000     0.248830000000     0.342127   
C33      C      0.004100000000     0.447620000000     0.229090000000    -0.0141874  
C34      C      0.008980000000     0.979450000000     0.193600000000    -0.013635   
C35      C      0.999240000000     0.469720000000     0.247780000000    -0.013883   
C36      C      0.003840000000     0.001610000000     0.212080000000    -0.0142958  
C37      C      0.381200000000     0.326030000000     0.220310000000    -0.0142543  
C38      C      0.345810000000     0.360410000000     0.217200000000    -0.0140912  
C39      C      0.402650000000     0.346860000000     0.223300000000    -0.0136566  
C40      C      0.367310000000     0.381170000000     0.220230000000    -0.0138833  
C41      C      0.131040000000     0.079000000000     0.221750000000    -0.0141319  
C42      C      0.093430000000     0.111330000000     0.221010000000    -0.0138776  
C43      C      0.151300000000     0.101070000000     0.222910000000    -0.0137267  
C44      C      0.113800000000     0.133290000000     0.222250000000    -0.0139038  
C45      C      0.243090000000     0.222980000000     0.243380000000    -0.0137321  
C46      C      0.241170000000     0.258360000000     0.210840000000    -0.014158   
C47      C      0.247900000000     0.203260000000     0.222340000000    -0.0141185  
C48      C      0.245600000000     0.238520000000     0.189790000000    -0.0138437  
C49      C      0.378700000000     0.470880000000     0.070980000000    -0.0138777  
C50      C      0.378590000000     0.003730000000     0.105970000000    -0.0143091  
C51      C      0.377290000000     0.449180000000     0.090660000000    -0.014304   
C52      C      0.376580000000     0.982170000000     0.125590000000    -0.0136909  
C53      C      0.239890000000     0.077010000000     0.101600000000    -0.0143459  
C54      C      0.274470000000     0.112160000000     0.099670000000    -0.0139058  
C55      C      0.217880000000     0.096880000000     0.096480000000    -0.0137247  
C56      C      0.252490000000     0.131940000000     0.094280000000    -0.0139788  
C57      C      0.130290000000     0.977610000000     0.320450000000    -0.0140496  
C58      C      0.122550000000     0.008800000000     0.356090000000    -0.0145005  
C59      C      0.129140000000     0.455100000000     0.339130000000    -0.0141016  
C60      C      0.121820000000     0.486340000000     0.374960000000    -0.0141179  
C61      C      0.263860000000     0.373730000000     0.361800000000    -0.0139968  
C62      C      0.225810000000     0.342120000000     0.359920000000    -0.0137416  
C63      C      0.269630000000     0.369060000000     0.333690000000    -0.0138483  
C64      C      0.231290000000     0.337660000000     0.331770000000    -0.0141136  
C65      C      0.241830000000     0.479130000000     0.002820000000    -0.0140107  
C66      C      0.255670000000     0.006630000000     0.965880000000    -0.0142995  
C67      C      0.242970000000     0.455160000000     0.485990000000    -0.0142277  
C68      C      0.256570000000     0.982700000000     0.448920000000    -0.0139193  
C69      C      0.017060000000     0.365620000000     0.073730000000    -0.0135676  
C70      C      0.480640000000     0.332370000000     0.075150000000    -0.0140578  
C71      C      0.013690000000     0.370520000000     0.102110000000    -0.0142168  
C72      C      0.476870000000     0.337350000000     0.103530000000    -0.0140767  
C73      C      0.150080000000     0.352250000000     0.476030000000    -0.013924   
C74      C      0.109470000000     0.377440000000     0.462570000000    -0.0141622  
C75      C      0.134610000000     0.327080000000     0.472330000000    -0.0137926  
C76      C      0.094030000000     0.352210000000     0.458960000000    -0.0136896  
C77      C      0.117910000000     0.218540000000     0.067000000000    -0.0139689  
C78      C      0.117820000000     0.254710000000     0.098860000000    -0.0142994  
C79      C      0.113740000000     0.199110000000     0.088420000000    -0.0140371  
C80      C      0.114220000000     0.235020000000     0.120230000000    -0.0138202  
C81      C      0.018400000000     0.115030000000     0.336450000000    -0.0140393  
C82      C      0.980310000000     0.084210000000     0.328820000000    -0.014154   
C83      C      0.008070000000     0.119910000000     0.363310000000    -0.0138546  
C84      C      0.470100000000     0.089130000000     0.355680000000    -0.0137449  
C85      C      0.343950000000     0.114110000000     0.980550000000    -0.0136321  
C86      C      0.386350000000     0.090690000000     0.991930000000    -0.0136195  
C87      C      0.352260000000     0.114050000000     0.452670000000    -0.0138144  
C88      C      0.394750000000     0.090840000000     0.464070000000    -0.0136637  
C89      C      0.372210000000     0.203200000000     0.329850000000    -0.0140131  
C90      C      0.356170000000     0.227600000000     0.368070000000    -0.0140111  
C91      C      0.374690000000     0.228570000000     0.315190000000    -0.0140907  
C92      C      0.358990000000     0.252990000000     0.353570000000    -0.0140413  
C93      C      0.485680000000     0.237760000000     0.439790000000    -0.0138013  
C94      C      0.466080000000     0.217420000000     0.978760000000    -0.0138624  
C95      C      0.013360000000     0.237680000000     0.452160000000    -0.014075   
C96      C      0.993690000000     0.217500000000     0.991330000000    -0.0139371  
C97      C      0.455410000000     0.200110000000     0.936170000000     0.341409   
C98      C      0.395900000000     0.129190000000     0.936130000000     0.342534   
C99      C      0.391020000000     0.193900000000     0.872350000000     0.342062   
C100     C      0.462040000000     0.130980000000     0.876880000000     0.340888   
C101     C      0.025490000000     0.253980000000     0.494700000000     0.3401     
C102     C      0.091740000000     0.258240000000     0.559050000000     0.342731   
C103     C      0.090280000000     0.317690000000     0.491240000000     0.342402   
C104     C      0.023900000000     0.322720000000     0.554150000000     0.34072    
C105     C      0.154070000000     0.387430000000     0.944530000000     0.341616   
C106     C      0.222140000000     0.448700000000     0.943940000000     0.340183   
C107     C      0.220100000000     0.384220000000     0.881360000000     0.341339   
C108     C      0.153130000000     0.449600000000     0.879790000000     0.341277   
C109     C      0.342670000000     0.075970000000     0.508740000000     0.342237   
C110     C      0.276840000000     0.012510000000     0.507930000000     0.339519   
C111     C      0.349660000000     0.009580000000     0.568350000000     0.342355   
C112     C      0.280640000000     0.071790000000     0.575300000000     0.341525   
C113     C      0.152730000000     0.138360000000     0.693640000000     0.341777   
C114     C      0.142620000000     0.196280000000     0.626460000000     0.340492   
C115     C      0.218910000000     0.198560000000     0.684580000000     0.341346   
C116     C      0.212080000000     0.137290000000     0.620940000000     0.341185   
C117     C      0.340300000000     0.262780000000     0.811190000000     0.340166   
C118     C      0.274570000000     0.327330000000     0.811340000000     0.341442   
C119     C      0.339290000000     0.322560000000     0.745110000000     0.340577   
C120     C      0.269280000000     0.263060000000     0.749250000000     0.342871   
C121     C      0.471820000000     0.379190000000     0.625650000000     0.34061    
C122     C      0.405300000000     0.443460000000     0.629030000000     0.341162   
C123     C      0.408730000000     0.384210000000     0.694630000000     0.341462   
C124     C      0.479000000000     0.441690000000     0.688970000000     0.341187   
C125     C      0.027020000000     0.008980000000     0.752900000000     0.34186    
C126     C      0.026000000000     0.073800000000     0.813980000000     0.340265   
C127     C      0.097500000000     0.013100000000     0.815740000000     0.340189   
C128     C      0.091080000000     0.073000000000     0.748830000000     0.342127   
C129     C      0.004100000000     0.447620000000     0.729090000000    -0.0141843  
C130     C      0.008980000000     0.979450000000     0.693610000000    -0.0135257  
C131     C      0.999240000000     0.469720000000     0.747780000000    -0.0138866  
C132     C      0.003840000000     0.001610000000     0.712080000000    -0.0143379  
C133     C      0.381200000000     0.326030000000     0.720310000000    -0.0142547  
C134     C      0.345810000000     0.360410000000     0.717200000000    -0.0140916  
C135     C      0.402650000000     0.346860000000     0.723300000000    -0.0136565  
C136     C      0.367310000000     0.381170000000     0.720230000000    -0.0138832  
C137     C      0.131040000000     0.079000000000     0.721750000000    -0.0141322  
C138     C      0.093430000000     0.111330000000     0.721010000000    -0.0138779  
C139     C      0.151300000000     0.101070000000     0.722910000000    -0.0137267  
C140     C      0.113800000000     0.133290000000     0.722250000000    -0.0139038  
C141     C      0.243090000000     0.222980000000     0.743380000000    -0.0137451  
C142     C      0.241170000000     0.258360000000     0.710840000000    -0.0141655  
C143     C      0.247900000000     0.203260000000     0.722340000000    -0.0141154  
C144     C      0.245600000000     0.238520000000     0.689790000000    -0.0138421  
C145     C      0.378700000000     0.470880000000     0.570980000000    -0.0138757  
C146     C      0.378590000000     0.003730000000     0.605960000000    -0.0142063  
C147     C      0.377290000000     0.449180000000     0.590660000000    -0.0143069  
C148     C      0.376580000000     0.982170000000     0.625590000000    -0.0137406  
C149     C      0.239890000000     0.077010000000     0.601600000000    -0.0143435  
C150     C      0.274470000000     0.112160000000     0.599660000000    -0.0138504  
C151     C      0.217880000000     0.096880000000     0.596480000000    -0.0137275  
C152     C      0.252490000000     0.131940000000     0.594280000000    -0.0140016  
C153     C      0.130290000000     0.977610000000     0.820450000000    -0.0140505  
C154     C      0.122550000000     0.008800000000     0.856090000000    -0.0144974  
C155     C      0.129140000000     0.455100000000     0.839130000000    -0.0140958  
C156     C      0.121820000000     0.486340000000     0.874960000000    -0.0141195  
C157     C      0.263860000000     0.373730000000     0.861800000000    -0.0139975  
C158     C      0.225810000000     0.342120000000     0.859920000000    -0.0137421  
C159     C      0.269630000000     0.369060000000     0.833690000000    -0.0138481  
C160     C      0.231290000000     0.337660000000     0.831770000000    -0.0141134  
C161     C      0.241830000000     0.479130000000     0.502820000000    -0.0138725  
C162     C      0.255670000000     0.006630000000     0.465880000000    -0.0143071  
C163     C      0.242970000000     0.455160000000     0.985990000000    -0.0141421  
C164     C      0.256570000000     0.982700000000     0.948920000000    -0.0139649  
C165     C      0.017060000000     0.365620000000     0.573730000000    -0.0135697  
C166     C      0.480640000000     0.332370000000     0.575150000000    -0.0140654  
C167     C      0.013690000000     0.370520000000     0.602110000000    -0.0142146  
C168     C      0.476870000000     0.337350000000     0.603530000000    -0.0140455  
C169     C      0.150080000000     0.352250000000     0.976030000000    -0.0139254  
C170     C      0.109470000000     0.377440000000     0.962570000000    -0.0141114  
C171     C      0.134610000000     0.327080000000     0.972330000000    -0.0137869  
C172     C      0.094030000000     0.352210000000     0.958960000000    -0.0137036  
C173     C      0.117910000000     0.218540000000     0.567000000000    -0.0139703  
C174     C      0.117820000000     0.254710000000     0.598860000000    -0.0143001  
C175     C      0.113740000000     0.199110000000     0.588420000000    -0.0140365  
C176     C      0.114220000000     0.235020000000     0.620230000000    -0.0138198  
C177     C      0.018400000000     0.115030000000     0.836440000000    -0.0140461  
C178     C      0.980310000000     0.084210000000     0.828820000000    -0.0141542  
C179     C      0.008070000000     0.119910000000     0.863310000000    -0.0138585  
C180     C      0.470100000000     0.089130000000     0.855680000000    -0.0137455  
C181     C      0.343950000000     0.114110000000     0.480550000000    -0.0136557  
C182     C      0.386350000000     0.090690000000     0.491930000000    -0.0138012  
C183     C      0.352260000000     0.114050000000     0.952670000000    -0.0138183  
C184     C      0.394750000000     0.090840000000     0.964070000000    -0.0137092  
C185     C      0.372210000000     0.203200000000     0.829850000000    -0.0140133  
C186     C      0.356170000000     0.227600000000     0.868070000000    -0.0140117  
C187     C      0.374690000000     0.228570000000     0.815190000000    -0.0140908  
C188     C      0.358990000000     0.252990000000     0.853570000000    -0.0140412  
C189     C      0.485680000000     0.237760000000     0.939790000000    -0.0137842  
C190     C      0.466080000000     0.217420000000     0.478760000000    -0.013811   
C191     C      0.013360000000     0.237680000000     0.952160000000    -0.0141333  
C192     C      0.993690000000     0.217500000000     0.491330000000    -0.0141028  
C193     C      0.455410000000     0.700110000000     0.436170000000     0.341413   
C194     C      0.395900000000     0.629190000000     0.436130000000     0.342533   
C195     C      0.391020000000     0.693910000000     0.372350000000     0.341994   
C196     C      0.462040000000     0.630980000000     0.376880000000     0.340887   
C197     C      0.025490000000     0.753980000000     0.994700000000     0.340276   
C198     C      0.091740000000     0.758240000000     0.059050000000     0.342732   
C199     C      0.090280000000     0.817690000000     0.991240000000     0.342494   
C200     C      0.023900000000     0.822720000000     0.054150000000     0.340721   
C201     C      0.154070000000     0.887430000000     0.444530000000     0.341614   
C202     C      0.222140000000     0.948700000000     0.443940000000     0.340186   
C203     C      0.220100000000     0.884220000000     0.381360000000     0.341338   
C204     C      0.153130000000     0.949600000000     0.379790000000     0.341213   
C205     C      0.342670000000     0.575980000000     0.008740000000     0.342018   
C206     C      0.276840000000     0.512510000000     0.007930000000     0.339455   
C207     C      0.349660000000     0.509580000000     0.068350000000     0.342465   
C208     C      0.280640000000     0.571790000000     0.075300000000     0.341524   
C209     C      0.152730000000     0.638360000000     0.193640000000     0.341778   
C210     C      0.142620000000     0.696280000000     0.126460000000     0.34062    
C211     C      0.218910000000     0.698560000000     0.184580000000     0.341348   
C212     C      0.212080000000     0.637290000000     0.120940000000     0.341186   
C213     C      0.340300000000     0.762780000000     0.311190000000     0.340167   
C214     C      0.274570000000     0.827330000000     0.311340000000     0.34139    
C215     C      0.339290000000     0.822560000000     0.245110000000     0.340512   
C216     C      0.269280000000     0.763060000000     0.249250000000     0.343085   
C217     C      0.471820000000     0.879190000000     0.125650000000     0.340611   
C218     C      0.405300000000     0.943460000000     0.129030000000     0.341168   
C219     C      0.408730000000     0.884210000000     0.194630000000     0.341463   
C220     C      0.479000000000     0.941690000000     0.188970000000     0.341192   
C221     C      0.027020000000     0.508990000000     0.252900000000     0.342049   
C222     C      0.026000000000     0.573800000000     0.313980000000     0.340268   
C223     C      0.097500000000     0.513100000000     0.315740000000     0.340219   
C224     C      0.091080000000     0.573000000000     0.248830000000     0.342131   
C225     C      0.004100000000     0.947620000000     0.229090000000    -0.0141244  
C226     C      0.008980000000     0.479450000000     0.193600000000    -0.0137598  
C227     C      0.999240000000     0.969720000000     0.247780000000    -0.0139062  
C228     C      0.003840000000     0.501610000000     0.212080000000    -0.0141057  
C229     C      0.381200000000     0.826040000000     0.220310000000    -0.0141919  
C230     C      0.345810000000     0.860410000000     0.217200000000    -0.0140335  
C231     C      0.402650000000     0.846860000000     0.223300000000    -0.0136804  
C232     C      0.367310000000     0.881170000000     0.220230000000    -0.0139033  
C233     C      0.131040000000     0.579010000000     0.221750000000    -0.014027   
C234     C      0.093430000000     0.611330000000     0.221010000000    -0.0138747  
C235     C      0.151300000000     0.601070000000     0.222910000000    -0.0137659  
C236     C      0.113800000000     0.633290000000     0.222250000000    -0.0139069  
C237     C      0.243090000000     0.722980000000     0.243380000000    -0.0137345  
C238     C      0.241170000000     0.758360000000     0.210840000000    -0.0141906  
C239     C      0.247900000000     0.703260000000     0.222340000000    -0.0141161  
C240     C      0.245600000000     0.738510000000     0.189790000000    -0.0137413  
C241     C      0.378700000000     0.970870000000     0.070980000000    -0.0139772  
C242     C      0.378590000000     0.503730000000     0.105970000000    -0.0141032  
C243     C      0.377290000000     0.949180000000     0.090660000000    -0.0142462  
C244     C      0.376580000000     0.482170000000     0.125590000000    -0.0138225  
C245     C      0.239890000000     0.577010000000     0.101600000000    -0.0143474  
C246     C      0.274470000000     0.612160000000     0.099670000000    -0.0139062  
C247     C      0.217880000000     0.596880000000     0.096480000000    -0.0137242  
C248     C      0.252490000000     0.631940000000     0.094280000000    -0.0139786  
C249     C      0.130290000000     0.477610000000     0.320450000000    -0.0140599  
C250     C      0.122550000000     0.508800000000     0.356090000000    -0.0142855  
C251     C      0.129140000000     0.955100000000     0.339130000000    -0.0141333  
C252     C      0.121820000000     0.986340000000     0.374960000000    -0.0139437  
C253     C      0.263860000000     0.873730000000     0.361800000000    -0.0139976  
C254     C      0.225810000000     0.842120000000     0.359920000000    -0.0137528  
C255     C      0.269630000000     0.869060000000     0.333690000000    -0.0138501  
C256     C      0.231290000000     0.837660000000     0.331770000000    -0.0140871  
C257     C      0.241830000000     0.979130000000     0.002820000000    -0.0140305  
C258     C      0.255670000000     0.506630000000     0.965880000000    -0.0141289  
C259     C      0.242970000000     0.955160000000     0.485990000000    -0.014212   
C260     C      0.256570000000     0.482690000000     0.448920000000    -0.0139826  
C261     C      0.017060000000     0.865620000000     0.073730000000    -0.0135432  
C262     C      0.480640000000     0.832370000000     0.075150000000    -0.0140579  
C263     C      0.013690000000     0.870520000000     0.102110000000    -0.0142257  
C264     C      0.476870000000     0.837350000000     0.103530000000    -0.0140768  
C265     C      0.150080000000     0.852250000000     0.476030000000    -0.0139243  
C266     C      0.109470000000     0.877440000000     0.462570000000    -0.0141627  
C267     C      0.134610000000     0.827080000000     0.472330000000    -0.0137926  
C268     C      0.094030000000     0.852210000000     0.458960000000    -0.0136998  
C269     C      0.117910000000     0.718540000000     0.067000000000    -0.0139666  
C270     C      0.117820000000     0.754710000000     0.098860000000    -0.0142998  
C271     C      0.113740000000     0.699110000000     0.088420000000    -0.0140324  
C272     C      0.114220000000     0.735020000000     0.120230000000    -0.0138158  
C273     C      0.018400000000     0.615030000000     0.336450000000    -0.0140384  
C274     C      0.980310000000     0.584210000000     0.328820000000    -0.0141534  
C275     C      0.008070000000     0.619910000000     0.363310000000    -0.0138557  
C276     C      0.470100000000     0.589130000000     0.355680000000    -0.0137462  
C277     C      0.343950000000     0.614110000000     0.980550000000    -0.0136283  
C278     C      0.386350000000     0.590690000000     0.991930000000    -0.0136048  
C279     C      0.352260000000     0.614050000000     0.452670000000    -0.0138148  
C280     C      0.394750000000     0.590840000000     0.464070000000    -0.013668   
C281     C      0.372210000000     0.703200000000     0.329850000000    -0.0140021  
C282     C      0.356170000000     0.727600000000     0.368070000000    -0.0140115  
C283     C      0.374690000000     0.728570000000     0.315190000000    -0.0140948  
C284     C      0.358990000000     0.752990000000     0.353570000000    -0.0140417  
C285     C      0.485680000000     0.737750000000     0.439790000000    -0.0136873  
C286     C      0.466080000000     0.717420000000     0.978760000000    -0.0138593  
C287     C      0.013360000000     0.737680000000     0.452160000000    -0.0141234  
C288     C      0.993690000000     0.717500000000     0.991330000000    -0.0139413  
C289     C      0.455410000000     0.700110000000     0.936170000000     0.341413   
C290     C      0.395900000000     0.629190000000     0.936130000000     0.342534   
C291     C      0.391020000000     0.693910000000     0.872350000000     0.341994   
C292     C      0.462040000000     0.630980000000     0.876880000000     0.340888   
C293     C      0.025490000000     0.753980000000     0.494700000000     0.340099   
C294     C      0.091740000000     0.758240000000     0.559050000000     0.342731   
C295     C      0.090280000000     0.817690000000     0.491240000000     0.342402   
C296     C      0.023900000000     0.822720000000     0.554150000000     0.340722   
C297     C      0.154070000000     0.887430000000     0.944530000000     0.341617   
C298     C      0.222140000000     0.948700000000     0.943940000000     0.340189   
C299     C      0.220100000000     0.884220000000     0.881360000000     0.341338   
C300     C      0.153130000000     0.949600000000     0.879790000000     0.341213   
C301     C      0.342670000000     0.575980000000     0.508740000000     0.34216    
C302     C      0.276840000000     0.512510000000     0.507930000000     0.339628   
C303     C      0.349660000000     0.509580000000     0.568350000000     0.342468   
C304     C      0.280640000000     0.571790000000     0.575300000000     0.341526   
C305     C      0.152730000000     0.638360000000     0.693640000000     0.341778   
C306     C      0.142620000000     0.696280000000     0.626460000000     0.340621   
C307     C      0.218910000000     0.698560000000     0.684580000000     0.341348   
C308     C      0.212080000000     0.637290000000     0.620940000000     0.341187   
C309     C      0.340300000000     0.762780000000     0.811190000000     0.340168   
C310     C      0.274570000000     0.827330000000     0.811340000000     0.341389   
C311     C      0.339290000000     0.822560000000     0.745110000000     0.340512   
C312     C      0.269280000000     0.763060000000     0.749250000000     0.34287    
C313     C      0.471820000000     0.879190000000     0.625650000000     0.340612   
C314     C      0.405300000000     0.943460000000     0.629030000000     0.341167   
C315     C      0.408730000000     0.884210000000     0.694630000000     0.341463   
C316     C      0.479000000000     0.941690000000     0.688970000000     0.341194   
C317     C      0.027020000000     0.508990000000     0.752900000000     0.342047   
C318     C      0.026000000000     0.573800000000     0.813980000000     0.340267   
C319     C      0.097500000000     0.513100000000     0.815740000000     0.3403     
C320     C      0.091080000000     0.573000000000     0.748830000000     0.342131   
C321     C      0.004100000000     0.947620000000     0.729090000000    -0.0141213  
C322     C      0.008980000000     0.479450000000     0.693610000000    -0.0136504  
C323     C      0.999240000000     0.969720000000     0.747780000000    -0.0139098  
C324     C      0.003840000000     0.501610000000     0.712080000000    -0.0141478  
C325     C      0.381200000000     0.826040000000     0.720310000000    -0.0141923  
C326     C      0.345810000000     0.860410000000     0.717200000000    -0.0140339  
C327     C      0.402650000000     0.846860000000     0.723300000000    -0.0136804  
C328     C      0.367310000000     0.881170000000     0.720230000000    -0.0139032  
C329     C      0.131040000000     0.579010000000     0.721750000000    -0.0140273  
C330     C      0.093430000000     0.611330000000     0.721010000000    -0.013875   
C331     C      0.151300000000     0.601070000000     0.722910000000    -0.0137659  
C332     C      0.113800000000     0.633290000000     0.722250000000    -0.0139069  
C333     C      0.243090000000     0.722980000000     0.743380000000    -0.0137475  
C334     C      0.241170000000     0.758360000000     0.710840000000    -0.0141981  
C335     C      0.247900000000     0.703260000000     0.722340000000    -0.014113   
C336     C      0.245600000000     0.738510000000     0.689790000000    -0.0137396  
C337     C      0.378700000000     0.970870000000     0.570980000000    -0.0139751  
C338     C      0.378590000000     0.503730000000     0.605960000000    -0.0140005  
C339     C      0.377290000000     0.949180000000     0.590660000000    -0.0142491  
C340     C      0.376580000000     0.482170000000     0.625590000000    -0.0138722  
C341     C      0.239890000000     0.577010000000     0.601600000000    -0.014345   
C342     C      0.274470000000     0.612160000000     0.599660000000    -0.0138509  
C343     C      0.217880000000     0.596880000000     0.596480000000    -0.013727   
C344     C      0.252490000000     0.631940000000     0.594280000000    -0.0140015  
C345     C      0.130290000000     0.477610000000     0.820450000000    -0.0140608  
C346     C      0.122550000000     0.508800000000     0.856090000000    -0.0142826  
C347     C      0.129140000000     0.955100000000     0.839130000000    -0.0141275  
C348     C      0.121820000000     0.986340000000     0.874960000000    -0.0139453  
C349     C      0.263860000000     0.873730000000     0.861800000000    -0.0139982  
C350     C      0.225810000000     0.842120000000     0.859920000000    -0.0137534  
C351     C      0.269630000000     0.869060000000     0.833690000000    -0.0138499  
C352     C      0.231290000000     0.837660000000     0.831770000000    -0.014087   
C353     C      0.241830000000     0.979130000000     0.502820000000    -0.0138926  
C354     C      0.255670000000     0.506630000000     0.465880000000    -0.0141362  
C355     C      0.242970000000     0.955160000000     0.985990000000    -0.0141265  
C356     C      0.256570000000     0.482690000000     0.948920000000    -0.014028   
C357     C      0.017060000000     0.865620000000     0.573730000000    -0.0135453  
C358     C      0.480640000000     0.832370000000     0.575150000000    -0.0140656  
C359     C      0.013690000000     0.870520000000     0.602110000000    -0.0142235  
C360     C      0.476870000000     0.837350000000     0.603530000000    -0.0140456  
C361     C      0.150080000000     0.852250000000     0.976030000000    -0.0139257  
C362     C      0.109470000000     0.877440000000     0.962570000000    -0.0141118  
C363     C      0.134610000000     0.827080000000     0.972330000000    -0.0137869  
C364     C      0.094030000000     0.852210000000     0.958960000000    -0.0137138  
C365     C      0.117910000000     0.718540000000     0.567000000000    -0.0139681  
C366     C      0.117820000000     0.754710000000     0.598860000000    -0.0143005  
C367     C      0.113740000000     0.699110000000     0.588420000000    -0.0140317  
C368     C      0.114220000000     0.735020000000     0.620230000000    -0.0138153  
C369     C      0.018400000000     0.615030000000     0.836440000000    -0.0140452  
C370     C      0.980310000000     0.584210000000     0.828820000000    -0.0141536  
C371     C      0.008070000000     0.619910000000     0.863310000000    -0.0138596  
C372     C      0.470100000000     0.589130000000     0.855680000000    -0.0137468  
C373     C      0.343950000000     0.614110000000     0.480550000000    -0.0136519  
C374     C      0.386350000000     0.590690000000     0.491930000000    -0.0137865  
C375     C      0.352260000000     0.614050000000     0.952670000000    -0.0138187  
C376     C      0.394750000000     0.590840000000     0.964070000000    -0.0137134  
C377     C      0.372210000000     0.703200000000     0.829850000000    -0.0140024  
C378     C      0.356170000000     0.727600000000     0.868070000000    -0.0140121  
C379     C      0.374690000000     0.728570000000     0.815190000000    -0.0140949  
C380     C      0.358990000000     0.752990000000     0.853570000000    -0.0140417  
C381     C      0.485680000000     0.737750000000     0.939790000000    -0.0136703  
C382     C      0.466080000000     0.717420000000     0.478760000000    -0.0138079  
C383     C      0.013360000000     0.737680000000     0.952160000000    -0.0141816  
C384     C      0.993690000000     0.717500000000     0.491330000000    -0.014107   
C385     C      0.955410000000     0.200110000000     0.436170000000     0.341409   
C386     C      0.895910000000     0.129190000000     0.436130000000     0.342598   
C387     C      0.891020000000     0.193900000000     0.372350000000     0.342137   
C388     C      0.962040000000     0.130980000000     0.376880000000     0.34089    
C389     C      0.525490000000     0.253980000000     0.994700000000     0.34042    
C390     C      0.591740000000     0.258240000000     0.059050000000     0.342734   
C391     C      0.590280000000     0.317690000000     0.991240000000     0.342492   
C392     C      0.523900000000     0.322720000000     0.054150000000     0.34072    
C393     C      0.654070000000     0.387430000000     0.444530000000     0.341617   
C394     C      0.722140000000     0.448700000000     0.443940000000     0.340181   
C395     C      0.720100000000     0.384220000000     0.381360000000     0.34134    
C396     C      0.653130000000     0.449600000000     0.379790000000     0.3412     
C397     C      0.842670000000     0.075970000000     0.008740000000     0.342092   
C398     C      0.776850000000     0.012510000000     0.007930000000     0.33942    
C399     C      0.849660000000     0.009580000000     0.068350000000     0.342427   
C400     C      0.780640000000     0.071790000000     0.075300000000     0.341523   
C401     C      0.652730000000     0.138360000000     0.193640000000     0.341775   
C402     C      0.642620000000     0.196280000000     0.126460000000     0.34049    
C403     C      0.718910000000     0.198560000000     0.184580000000     0.341349   
C404     C      0.712080000000     0.137290000000     0.120940000000     0.341114   
C405     C      0.840300000000     0.262780000000     0.311190000000     0.340167   
C406     C      0.774570000000     0.327330000000     0.311340000000     0.34144    
C407     C      0.839290000000     0.322560000000     0.245110000000     0.34058    
C408     C      0.769280000000     0.263060000000     0.249250000000     0.343086   
C409     C      0.971820000000     0.379190000000     0.125650000000     0.340608   
C410     C      0.905300000000     0.443460000000     0.129030000000     0.341237   
C411     C      0.908730000000     0.384210000000     0.194630000000     0.341461   
C412     C      0.979000000000     0.441690000000     0.188970000000     0.341184   
C413     C      0.527020000000     0.008980000000     0.252900000000     0.341861   
C414     C      0.526000000000     0.073800000000     0.313980000000     0.340267   
C415     C      0.597500000000     0.013100000000     0.315740000000     0.340155   
C416     C      0.591080000000     0.073000000000     0.248830000000     0.342129   
C417     C      0.504100000000     0.447620000000     0.229090000000    -0.0141661  
C418     C      0.508980000000     0.979450000000     0.193600000000    -0.013633   
C419     C      0.499240000000     0.469720000000     0.247780000000    -0.0139411  
C420     C      0.503840000000     0.001610000000     0.212080000000    -0.0142971  
C421     C      0.881200000000     0.326030000000     0.220310000000    -0.014251   
C422     C      0.845820000000     0.360410000000     0.217200000000    -0.013989   
C423     C      0.902650000000     0.346860000000     0.223300000000    -0.0136598  
C424     C      0.867310000000     0.381170000000     0.220230000000    -0.0139217  
C425     C      0.631030000000     0.079000000000     0.221750000000    -0.0140331  
C426     C      0.593430000000     0.111330000000     0.221010000000    -0.013875   
C427     C      0.651300000000     0.101070000000     0.222910000000    -0.0137723  
C428     C      0.613800000000     0.133290000000     0.222250000000    -0.0139072  
C429     C      0.743090000000     0.222980000000     0.243380000000    -0.0137519  
C430     C      0.741170000000     0.258360000000     0.210840000000    -0.0141597  
C431     C      0.747900000000     0.203260000000     0.222340000000    -0.0140612  
C432     C      0.745600000000     0.238520000000     0.189790000000    -0.0138416  
C433     C      0.878700000000     0.470880000000     0.070980000000    -0.0138526  
C434     C      0.878590000000     0.003730000000     0.105970000000    -0.0143063  
C435     C      0.877280000000     0.449180000000     0.090660000000    -0.0143525  
C436     C      0.876580000000     0.982170000000     0.125590000000    -0.013691   
C437     C      0.739890000000     0.077010000000     0.101600000000    -0.0143445  
C438     C      0.774470000000     0.112160000000     0.099670000000    -0.0139042  
C439     C      0.717880000000     0.096880000000     0.096480000000    -0.0137279  
C440     C      0.752490000000     0.131940000000     0.094280000000    -0.0139809  
C441     C      0.630290000000     0.977610000000     0.320450000000    -0.0140473  
C442     C      0.622550000000     0.008800000000     0.356090000000    -0.014508   
C443     C      0.629140000000     0.455100000000     0.339130000000    -0.0141066  
C444     C      0.621820000000     0.486340000000     0.374960000000    -0.0141018  
C445     C      0.763860000000     0.373730000000     0.361800000000    -0.0139926  
C446     C      0.725810000000     0.342120000000     0.359920000000    -0.013664   
C447     C      0.769640000000     0.369060000000     0.333690000000    -0.0139177  
C448     C      0.731290000000     0.337660000000     0.331770000000    -0.0141441  
C449     C      0.741830000000     0.479130000000     0.002820000000    -0.0140156  
C450     C      0.755670000000     0.006630000000     0.965880000000    -0.0143104  
C451     C      0.742970000000     0.455160000000     0.485990000000    -0.0142281  
C452     C      0.756570000000     0.982700000000     0.448920000000    -0.0139177  
C453     C      0.517060000000     0.365620000000     0.073730000000    -0.0135665  
C454     C      0.980640000000     0.332370000000     0.075150000000    -0.0140677  
C455     C      0.513690000000     0.370520000000     0.102110000000    -0.0142161  
C456     C      0.976870000000     0.337350000000     0.103530000000    -0.0140532  
C457     C      0.650070000000     0.352250000000     0.476030000000    -0.0138189  
C458     C      0.609470000000     0.377440000000     0.462570000000    -0.0141397  
C459     C      0.634610000000     0.327080000000     0.472330000000    -0.0138335  
C460     C      0.594030000000     0.352210000000     0.458960000000    -0.0137012  
C461     C      0.617910000000     0.218540000000     0.067000000000    -0.013949   
C462     C      0.617820000000     0.254710000000     0.098860000000    -0.0142976  
C463     C      0.613740000000     0.199110000000     0.088420000000    -0.0140939  
C464     C      0.614220000000     0.235020000000     0.120230000000    -0.0138223  
C465     C      0.518400000000     0.115030000000     0.336450000000    -0.013998   
C466     C      0.480310000000     0.084210000000     0.328820000000    -0.0141808  
C467     C      0.508080000000     0.119910000000     0.363310000000    -0.0139766  
C468     C      0.970090000000     0.089130000000     0.355680000000    -0.0138225  
C469     C      0.843950000000     0.114110000000     0.980550000000    -0.0136473  
C470     C      0.886350000000     0.090690000000     0.991930000000    -0.0136476  
C471     C      0.852260000000     0.114050000000     0.452670000000    -0.0137788  
C472     C      0.894750000000     0.090840000000     0.464070000000    -0.0136659  
C473     C      0.872210000000     0.203200000000     0.329850000000    -0.0139965  
C474     C      0.856170000000     0.227600000000     0.368070000000    -0.0140571  
C475     C      0.874690000000     0.228570000000     0.315190000000    -0.0140926  
C476     C      0.858990000000     0.252990000000     0.353570000000    -0.0139812  
C477     C      0.985680000000     0.237760000000     0.439790000000    -0.0137987  
C478     C      0.966080000000     0.217420000000     0.978760000000    -0.0138576  
C479     C      0.513360000000     0.237680000000     0.452160000000    -0.0140649  
C480     C      0.493690000000     0.217500000000     0.991330000000    -0.0139129  
C481     C      0.955410000000     0.200110000000     0.936170000000     0.341409   
C482     C      0.895910000000     0.129190000000     0.936130000000     0.342599   
C483     C      0.891020000000     0.193900000000     0.872350000000     0.342137   
C484     C      0.962040000000     0.130980000000     0.876880000000     0.34089    
C485     C      0.525490000000     0.253980000000     0.494700000000     0.340242   
C486     C      0.591740000000     0.258240000000     0.559050000000     0.342733   
C487     C      0.590280000000     0.317690000000     0.491240000000     0.342399   
C488     C      0.523900000000     0.322720000000     0.554150000000     0.340721   
C489     C      0.654070000000     0.387430000000     0.944530000000     0.34162    
C490     C      0.722140000000     0.448700000000     0.943940000000     0.340184   
C491     C      0.720100000000     0.384220000000     0.881360000000     0.34134    
C492     C      0.653130000000     0.449600000000     0.879790000000     0.3412     
C493     C      0.842670000000     0.075970000000     0.508740000000     0.342234   
C494     C      0.776850000000     0.012510000000     0.507930000000     0.339593   
C495     C      0.849660000000     0.009580000000     0.568350000000     0.34243    
C496     C      0.780640000000     0.071790000000     0.575300000000     0.341525   
C497     C      0.652730000000     0.138360000000     0.693640000000     0.341775   
C498     C      0.642620000000     0.196280000000     0.626460000000     0.34049    
C499     C      0.718910000000     0.198560000000     0.684580000000     0.341348   
C500     C      0.712080000000     0.137290000000     0.620940000000     0.341114   
C501     C      0.840300000000     0.262780000000     0.811190000000     0.340168   
C502     C      0.774570000000     0.327330000000     0.811340000000     0.34144    
C503     C      0.839290000000     0.322560000000     0.745110000000     0.34058    
C504     C      0.769280000000     0.263060000000     0.749250000000     0.34287    
C505     C      0.971820000000     0.379190000000     0.625650000000     0.340609   
C506     C      0.905300000000     0.443460000000     0.629030000000     0.341236   
C507     C      0.908730000000     0.384210000000     0.694630000000     0.341461   
C508     C      0.979000000000     0.441690000000     0.688970000000     0.341187   
C509     C      0.527020000000     0.008980000000     0.752900000000     0.34186    
C510     C      0.526000000000     0.073800000000     0.813980000000     0.340265   
C511     C      0.597500000000     0.013100000000     0.815740000000     0.340236   
C512     C      0.591080000000     0.073000000000     0.748830000000     0.342128   
C513     C      0.504100000000     0.447620000000     0.729090000000    -0.0141627  
C514     C      0.508980000000     0.979450000000     0.693610000000    -0.0135236  
C515     C      0.499240000000     0.469720000000     0.747780000000    -0.0139449  
C516     C      0.503840000000     0.001610000000     0.712080000000    -0.0143391  
C517     C      0.881200000000     0.326030000000     0.720310000000    -0.0142513  
C518     C      0.845820000000     0.360410000000     0.717200000000    -0.0139894  
C519     C      0.902650000000     0.346860000000     0.723300000000    -0.0136597  
C520     C      0.867310000000     0.381170000000     0.720230000000    -0.0139216  
C521     C      0.631030000000     0.079000000000     0.721750000000    -0.0140334  
C522     C      0.593430000000     0.111330000000     0.721010000000    -0.0138753  
C523     C      0.651300000000     0.101070000000     0.722910000000    -0.0137722  
C524     C      0.613800000000     0.133290000000     0.722250000000    -0.0139072  
C525     C      0.743090000000     0.222980000000     0.743380000000    -0.0137649  
C526     C      0.741170000000     0.258360000000     0.710840000000    -0.0141673  
C527     C      0.747900000000     0.203260000000     0.722340000000    -0.0140582  
C528     C      0.745600000000     0.238520000000     0.689790000000    -0.0138399  
C529     C      0.878700000000     0.470880000000     0.570980000000    -0.0138505  
C530     C      0.878590000000     0.003730000000     0.605960000000    -0.0142035  
C531     C      0.877280000000     0.449180000000     0.590660000000    -0.0143553  
C532     C      0.876580000000     0.982170000000     0.625590000000    -0.0137407  
C533     C      0.739890000000     0.077010000000     0.601600000000    -0.0143421  
C534     C      0.774470000000     0.112160000000     0.599660000000    -0.0138488  
C535     C      0.717880000000     0.096880000000     0.596480000000    -0.0137308  
C536     C      0.752490000000     0.131940000000     0.594280000000    -0.0140038  
C537     C      0.630290000000     0.977610000000     0.820450000000    -0.0140482  
C538     C      0.622550000000     0.008800000000     0.856090000000    -0.0145049  
C539     C      0.629140000000     0.455100000000     0.839130000000    -0.0141007  
C540     C      0.621820000000     0.486340000000     0.874960000000    -0.0141034  
C541     C      0.763860000000     0.373730000000     0.861800000000    -0.0139933  
C542     C      0.725810000000     0.342120000000     0.859920000000    -0.0136645  
C543     C      0.769640000000     0.369060000000     0.833690000000    -0.0139174  
C544     C      0.731290000000     0.337660000000     0.831770000000    -0.0141439  
C545     C      0.741830000000     0.479130000000     0.502820000000    -0.0138772  
C546     C      0.755670000000     0.006630000000     0.465880000000    -0.0143179  
C547     C      0.742970000000     0.455160000000     0.985990000000    -0.0141424  
C548     C      0.756570000000     0.982700000000     0.948920000000    -0.0139633  
C549     C      0.517060000000     0.365620000000     0.573730000000    -0.0135686  
C550     C      0.980640000000     0.332370000000     0.575150000000    -0.0140753  
C551     C      0.513690000000     0.370520000000     0.602110000000    -0.0142138  
C552     C      0.976870000000     0.337350000000     0.603530000000    -0.014022   
C553     C      0.650070000000     0.352250000000     0.976030000000    -0.0138202  
C554     C      0.609470000000     0.377440000000     0.962570000000    -0.0140889  
C555     C      0.634610000000     0.327080000000     0.972330000000    -0.0138277  
C556     C      0.594030000000     0.352210000000     0.958960000000    -0.0137153  
C557     C      0.617910000000     0.218540000000     0.567000000000    -0.0139505  
C558     C      0.617820000000     0.254710000000     0.598860000000    -0.0142983  
C559     C      0.613740000000     0.199110000000     0.588420000000    -0.0140932  
C560     C      0.614220000000     0.235020000000     0.620230000000    -0.0138219  
C561     C      0.518400000000     0.115030000000     0.836440000000    -0.0140049  
C562     C      0.480310000000     0.084210000000     0.828820000000    -0.0141811  
C563     C      0.508080000000     0.119910000000     0.863310000000    -0.0139803  
C564     C      0.970090000000     0.089130000000     0.855680000000    -0.0138231  
C565     C      0.843950000000     0.114110000000     0.480550000000    -0.0136709  
C566     C      0.886350000000     0.090690000000     0.491930000000    -0.0138297  
C567     C      0.852260000000     0.114050000000     0.952670000000    -0.0137827  
C568     C      0.894750000000     0.090840000000     0.964070000000    -0.0137114  
C569     C      0.872210000000     0.203200000000     0.829850000000    -0.0139968  
C570     C      0.856170000000     0.227600000000     0.868070000000    -0.0140577  
C571     C      0.874690000000     0.228570000000     0.815190000000    -0.0140927  
C572     C      0.858990000000     0.252990000000     0.853570000000    -0.0139812  
C573     C      0.985680000000     0.237760000000     0.939790000000    -0.0137815  
C574     C      0.966080000000     0.217420000000     0.478760000000    -0.013806   
C575     C      0.513360000000     0.237680000000     0.952160000000    -0.014123   
C576     C      0.493690000000     0.217500000000     0.491330000000    -0.0140781  
C577     C      0.955410000000     0.700110000000     0.436170000000     0.341413   
C578     C      0.895910000000     0.629190000000     0.436130000000     0.342598   
C579     C      0.891020000000     0.693910000000     0.372350000000     0.342069   
C580     C      0.962040000000     0.630980000000     0.376880000000     0.340889   
C581     C      0.525490000000     0.753980000000     0.994700000000     0.340419   
C582     C      0.591740000000     0.758240000000     0.059050000000     0.342734   
C583     C      0.590280000000     0.817690000000     0.991240000000     0.342492   
C584     C      0.523900000000     0.822720000000     0.054150000000     0.340722   
C585     C      0.654070000000     0.887430000000     0.444530000000     0.341617   
C586     C      0.722140000000     0.948700000000     0.443940000000     0.340186   
C587     C      0.720100000000     0.884220000000     0.381360000000     0.341339   
C588     C      0.653130000000     0.949600000000     0.379790000000     0.341137   
C589     C      0.842670000000     0.575980000000     0.008740000000     0.342015   
C590     C      0.776850000000     0.512510000000     0.007930000000     0.339529   
C591     C      0.849660000000     0.509580000000     0.068350000000     0.34254    
C592     C      0.780640000000     0.571790000000     0.075300000000     0.341524   
C593     C      0.652730000000     0.638360000000     0.193640000000     0.341776   
C594     C      0.642620000000     0.696280000000     0.126460000000     0.340619   
C595     C      0.718910000000     0.698560000000     0.184580000000     0.341351   
C596     C      0.712080000000     0.637290000000     0.120940000000     0.341116   
C597     C      0.840300000000     0.762780000000     0.311190000000     0.340169   
C598     C      0.774570000000     0.827330000000     0.311340000000     0.341387   
C599     C      0.839290000000     0.822560000000     0.245110000000     0.340515   
C600     C      0.769280000000     0.763060000000     0.249250000000     0.343085   
C601     C      0.971820000000     0.879190000000     0.125650000000     0.34061    
C602     C      0.905300000000     0.943460000000     0.129030000000     0.341242   
C603     C      0.908730000000     0.884210000000     0.194630000000     0.341462   
C604     C      0.979000000000     0.941690000000     0.188970000000     0.341191   
C605     C      0.527020000000     0.508990000000     0.252900000000     0.342048   
C606     C      0.526000000000     0.573800000000     0.313980000000     0.340268   
C607     C      0.597500000000     0.513100000000     0.315740000000     0.340266   
C608     C      0.591080000000     0.573000000000     0.248830000000     0.342133   
C609     C      0.504100000000     0.947620000000     0.229090000000    -0.0141028  
C610     C      0.508980000000     0.479450000000     0.193600000000    -0.0137581  
C611     C      0.499240000000     0.969720000000     0.247780000000    -0.0139646  
C612     C      0.503840000000     0.501610000000     0.212080000000    -0.0141065  
C613     C      0.881200000000     0.826040000000     0.220310000000    -0.0141886  
C614     C      0.845820000000     0.860410000000     0.217200000000    -0.0139313  
C615     C      0.902650000000     0.846860000000     0.223300000000    -0.0136836  
C616     C      0.867310000000     0.881170000000     0.220230000000    -0.0139417  
C617     C      0.631030000000     0.579010000000     0.221750000000    -0.0139282  
C618     C      0.593430000000     0.611330000000     0.221010000000    -0.0138721  
C619     C      0.651300000000     0.601070000000     0.222910000000    -0.0138115  
C620     C      0.613800000000     0.633290000000     0.222250000000    -0.0139103  
C621     C      0.743090000000     0.722980000000     0.243380000000    -0.0137543  
C622     C      0.741170000000     0.758360000000     0.210840000000    -0.0141923  
C623     C      0.747900000000     0.703260000000     0.222340000000    -0.0140588  
C624     C      0.745600000000     0.738510000000     0.189790000000    -0.0137391  
C625     C      0.878700000000     0.970870000000     0.070980000000    -0.013952   
C626     C      0.878590000000     0.503730000000     0.105970000000    -0.0141004  
C627     C      0.877280000000     0.949180000000     0.090660000000    -0.0142947  
C628     C      0.876580000000     0.482170000000     0.125590000000    -0.0138226  
C629     C      0.739890000000     0.577010000000     0.101600000000    -0.014346   
C630     C      0.774470000000     0.612160000000     0.099670000000    -0.0139047  
C631     C      0.717880000000     0.596880000000     0.096480000000    -0.0137274  
C632     C      0.752490000000     0.631940000000     0.094280000000    -0.0139808  
C633     C      0.630290000000     0.477610000000     0.320450000000    -0.0140576  
C634     C      0.622550000000     0.508800000000     0.356090000000    -0.0142928  
C635     C      0.629140000000     0.955100000000     0.339130000000    -0.0141382  
C636     C      0.621820000000     0.986340000000     0.374960000000    -0.0139274  
C637     C      0.763860000000     0.873730000000     0.361800000000    -0.0139933  
C638     C      0.725810000000     0.842120000000     0.359920000000    -0.0136752  
C639     C      0.769640000000     0.869060000000     0.333690000000    -0.0139195  
C640     C      0.731290000000     0.837660000000     0.331770000000    -0.0141176  
C641     C      0.741830000000     0.979130000000     0.002820000000    -0.0140354  
C642     C      0.755670000000     0.506630000000     0.965880000000    -0.0141397  
C643     C      0.742970000000     0.955160000000     0.485990000000    -0.0142124  
C644     C      0.756570000000     0.482690000000     0.448920000000    -0.013981   
C645     C      0.517060000000     0.865620000000     0.073730000000    -0.0135422  
C646     C      0.980640000000     0.832370000000     0.075150000000    -0.0140679  
C647     C      0.513690000000     0.870520000000     0.102110000000    -0.0142249  
C648     C      0.976870000000     0.837350000000     0.103530000000    -0.0140533  
C649     C      0.650070000000     0.852250000000     0.476030000000    -0.0138192  
C650     C      0.609470000000     0.877440000000     0.462570000000    -0.0141402  
C651     C      0.634610000000     0.827080000000     0.472330000000    -0.0138335  
C652     C      0.594030000000     0.852210000000     0.458960000000    -0.0137114  
C653     C      0.617910000000     0.718540000000     0.067000000000    -0.0139468  
C654     C      0.617820000000     0.754710000000     0.098860000000    -0.014298   
C655     C      0.613740000000     0.699110000000     0.088420000000    -0.0140891  
C656     C      0.614220000000     0.735020000000     0.120230000000    -0.0138179  
C657     C      0.518400000000     0.615030000000     0.336450000000    -0.0139971  
C658     C      0.480310000000     0.584210000000     0.328820000000    -0.0141802  
C659     C      0.508080000000     0.619910000000     0.363310000000    -0.0139776  
C660     C      0.970090000000     0.589130000000     0.355680000000    -0.0138238  
C661     C      0.843950000000     0.614110000000     0.980550000000    -0.0136435  
C662     C      0.886350000000     0.590690000000     0.991930000000    -0.013633   
C663     C      0.852260000000     0.614050000000     0.452670000000    -0.0137792  
C664     C      0.894750000000     0.590840000000     0.464070000000    -0.0136701  
C665     C      0.872210000000     0.703200000000     0.329850000000    -0.0139856  
C666     C      0.856170000000     0.727600000000     0.368070000000    -0.0140575  
C667     C      0.874690000000     0.728570000000     0.315190000000    -0.0140966  
C668     C      0.858990000000     0.752990000000     0.353570000000    -0.0139817  
C669     C      0.985680000000     0.737750000000     0.439790000000    -0.0136847  
C670     C      0.966080000000     0.717420000000     0.978760000000    -0.0138545  
C671     C      0.513360000000     0.737680000000     0.452160000000    -0.0141131  
C672     C      0.493690000000     0.717500000000     0.991330000000    -0.0139172  
C673     C      0.955410000000     0.700110000000     0.936170000000     0.341413   
C674     C      0.895910000000     0.629190000000     0.936130000000     0.342599   
C675     C      0.891020000000     0.693910000000     0.872350000000     0.342068   
C676     C      0.962040000000     0.630980000000     0.876880000000     0.34089    
C677     C      0.525490000000     0.753980000000     0.494700000000     0.340241   
C678     C      0.591740000000     0.758240000000     0.559050000000     0.342733   
C679     C      0.590280000000     0.817690000000     0.491240000000     0.342399   
C680     C      0.523900000000     0.822720000000     0.554150000000     0.340723   
C681     C      0.654070000000     0.887430000000     0.944530000000     0.34162    
C682     C      0.722140000000     0.948700000000     0.943940000000     0.340189   
C683     C      0.720100000000     0.884220000000     0.881360000000     0.34134    
C684     C      0.653130000000     0.949600000000     0.879790000000     0.341137   
C685     C      0.842670000000     0.575980000000     0.508740000000     0.342158   
C686     C      0.776850000000     0.512510000000     0.507930000000     0.339703   
C687     C      0.849660000000     0.509580000000     0.568350000000     0.342543   
C688     C      0.780640000000     0.571790000000     0.575300000000     0.341526   
C689     C      0.652730000000     0.638360000000     0.693640000000     0.341776   
C690     C      0.642620000000     0.696280000000     0.626460000000     0.340619   
C691     C      0.718910000000     0.698560000000     0.684580000000     0.341351   
C692     C      0.712080000000     0.637290000000     0.620940000000     0.341116   
C693     C      0.840300000000     0.762780000000     0.811190000000     0.340169   
C694     C      0.774570000000     0.827330000000     0.811340000000     0.341387   
C695     C      0.839290000000     0.822560000000     0.745110000000     0.340515   
C696     C      0.769280000000     0.763060000000     0.749250000000     0.342869   
C697     C      0.971820000000     0.879190000000     0.625650000000     0.340611   
C698     C      0.905300000000     0.943460000000     0.629030000000     0.341242   
C699     C      0.908730000000     0.884210000000     0.694630000000     0.341462   
C700     C      0.979000000000     0.941690000000     0.688970000000     0.341194   
C701     C      0.527020000000     0.508990000000     0.752900000000     0.342047   
C702     C      0.526000000000     0.573800000000     0.813980000000     0.340267   
C703     C      0.597500000000     0.513100000000     0.815740000000     0.340347   
C704     C      0.591080000000     0.573000000000     0.748830000000     0.342133   
C705     C      0.504100000000     0.947620000000     0.729090000000    -0.0140994  
C706     C      0.508980000000     0.479450000000     0.693610000000    -0.0136487  
C707     C      0.499240000000     0.969720000000     0.747780000000    -0.0139684  
C708     C      0.503840000000     0.501610000000     0.712080000000    -0.0141485  
C709     C      0.881200000000     0.826040000000     0.720310000000    -0.014189   
C710     C      0.845820000000     0.860410000000     0.717200000000    -0.0139317  
C711     C      0.902650000000     0.846860000000     0.723300000000    -0.0136836  
C712     C      0.867310000000     0.881170000000     0.720230000000    -0.0139417  
C713     C      0.631030000000     0.579010000000     0.721750000000    -0.0139285  
C714     C      0.593430000000     0.611330000000     0.721010000000    -0.0138724  
C715     C      0.651300000000     0.601070000000     0.722910000000    -0.0138115  
C716     C      0.613800000000     0.633290000000     0.722250000000    -0.0139103  
C717     C      0.743090000000     0.722980000000     0.743380000000    -0.0137673  
C718     C      0.741170000000     0.758360000000     0.710840000000    -0.0141999  
C719     C      0.747900000000     0.703260000000     0.722340000000    -0.0140558  
C720     C      0.745600000000     0.738510000000     0.689790000000    -0.0137375  
C721     C      0.878700000000     0.970870000000     0.570980000000    -0.01395    
C722     C      0.878590000000     0.503730000000     0.605960000000    -0.0139977  
C723     C      0.877280000000     0.949180000000     0.590660000000    -0.0142976  
C724     C      0.876580000000     0.482170000000     0.625590000000    -0.0138723  
C725     C      0.739890000000     0.577010000000     0.601600000000    -0.0143436  
C726     C      0.774470000000     0.612160000000     0.599660000000    -0.0138493  
C727     C      0.717880000000     0.596880000000     0.596480000000    -0.0137303  
C728     C      0.752490000000     0.631940000000     0.594280000000    -0.0140037  
C729     C      0.630290000000     0.477610000000     0.820450000000    -0.0140585  
C730     C      0.622550000000     0.508800000000     0.856090000000    -0.0142898  
C731     C      0.629140000000     0.955100000000     0.839130000000    -0.0141324  
C732     C      0.621820000000     0.986340000000     0.874960000000    -0.013929   
C733     C      0.763860000000     0.873730000000     0.861800000000    -0.013994   
C734     C      0.725810000000     0.842120000000     0.859920000000    -0.0136758  
C735     C      0.769640000000     0.869060000000     0.833690000000    -0.0139192  
C736     C      0.731290000000     0.837660000000     0.831770000000    -0.0141174  
C737     C      0.741830000000     0.979130000000     0.502820000000    -0.0138973  
C738     C      0.755670000000     0.506630000000     0.465880000000    -0.014147   
C739     C      0.742970000000     0.955160000000     0.985990000000    -0.0141269  
C740     C      0.756570000000     0.482690000000     0.948920000000    -0.0140264  
C741     C      0.517060000000     0.865620000000     0.573730000000    -0.0135442  
C742     C      0.980640000000     0.832370000000     0.575150000000    -0.0140754  
C743     C      0.513690000000     0.870520000000     0.602110000000    -0.0142226  
C744     C      0.976870000000     0.837350000000     0.603530000000    -0.0140222  
C745     C      0.650070000000     0.852250000000     0.976030000000    -0.0138205  
C746     C      0.609470000000     0.877440000000     0.962570000000    -0.0140894  
C747     C      0.634610000000     0.827080000000     0.972330000000    -0.0138278  
C748     C      0.594030000000     0.852210000000     0.958960000000    -0.0137254  
C749     C      0.617910000000     0.718540000000     0.567000000000    -0.0139482  
C750     C      0.617820000000     0.754710000000     0.598860000000    -0.0142987  
C751     C      0.613740000000     0.699110000000     0.588420000000    -0.0140884  
C752     C      0.614220000000     0.735020000000     0.620230000000    -0.0138174  
C753     C      0.518400000000     0.615030000000     0.836440000000    -0.0140039  
C754     C      0.480310000000     0.584210000000     0.828820000000    -0.0141805  
C755     C      0.508080000000     0.619910000000     0.863310000000    -0.0139814  
C756     C      0.970090000000     0.589130000000     0.855680000000    -0.0138244  
C757     C      0.843950000000     0.614110000000     0.480550000000    -0.0136671  
C758     C      0.886350000000     0.590690000000     0.491930000000    -0.013815   
C759     C      0.852260000000     0.614050000000     0.952670000000    -0.013783   
C760     C      0.894750000000     0.590840000000     0.964070000000    -0.0137156  
C761     C      0.872210000000     0.703200000000     0.829850000000    -0.0139858  
C762     C      0.856170000000     0.727600000000     0.868070000000    -0.0140581  
C763     C      0.874690000000     0.728570000000     0.815190000000    -0.0140967  
C764     C      0.858990000000     0.752990000000     0.853570000000    -0.0139817  
C765     C      0.985680000000     0.737750000000     0.939790000000    -0.0136675  
C766     C      0.966080000000     0.717420000000     0.478760000000    -0.013803   
C767     C      0.513360000000     0.737680000000     0.952160000000    -0.0141712  
C768     C      0.493690000000     0.717500000000     0.491330000000    -0.0140824  
Cd1      Cd     0.426140000000     0.164180000000     0.404810000000     0.508552   
Cd2      Cd     0.057690000000     0.287960000000     0.025570000000     0.508085   
Cd3      Cd     0.187420000000     0.418320000000     0.411770000000     0.507689   
Cd4      Cd     0.312370000000     0.041540000000     0.040490000000     0.508226   
Cd5      Cd     0.181330000000     0.167880000000     0.156080000000     0.508825   
Cd6      Cd     0.305700000000     0.293620000000     0.279340000000     0.508344   
Cd7      Cd     0.441410000000     0.412280000000     0.159020000000     0.508248   
Cd8      Cd     0.060710000000     0.041640000000     0.283710000000     0.507948   
Cd9      Cd     0.426140000000     0.164180000000     0.904810000000     0.508554   
Cd10     Cd     0.057690000000     0.287960000000     0.525570000000     0.508124   
Cd11     Cd     0.187420000000     0.418320000000     0.911770000000     0.507691   
Cd12     Cd     0.312370000000     0.041540000000     0.540490000000     0.508254   
Cd13     Cd     0.181330000000     0.167880000000     0.656080000000     0.508826   
Cd14     Cd     0.305700000000     0.293620000000     0.779340000000     0.508335   
Cd15     Cd     0.441410000000     0.412280000000     0.659020000000     0.508249   
Cd16     Cd     0.060710000000     0.041640000000     0.783710000000     0.507971   
Cd17     Cd     0.426140000000     0.664180000000     0.404810000000     0.508553   
Cd18     Cd     0.057690000000     0.787960000000     0.025570000000     0.508085   
Cd19     Cd     0.187420000000     0.918320000000     0.411770000000     0.507692   
Cd20     Cd     0.312370000000     0.541540000000     0.040490000000     0.508239   
Cd21     Cd     0.181330000000     0.667880000000     0.156080000000     0.508814   
Cd22     Cd     0.305700000000     0.793620000000     0.279340000000     0.508322   
Cd23     Cd     0.441410000000     0.912270000000     0.159020000000     0.508253   
Cd24     Cd     0.060710000000     0.541640000000     0.283710000000     0.50796    
Cd25     Cd     0.426140000000     0.664180000000     0.904810000000     0.508555   
Cd26     Cd     0.057690000000     0.787960000000     0.525570000000     0.508124   
Cd27     Cd     0.187420000000     0.918320000000     0.911770000000     0.507695   
Cd28     Cd     0.312370000000     0.541540000000     0.540490000000     0.508267   
Cd29     Cd     0.181330000000     0.667880000000     0.656080000000     0.508815   
Cd30     Cd     0.305700000000     0.793620000000     0.779340000000     0.508314   
Cd31     Cd     0.441410000000     0.912270000000     0.659020000000     0.508253   
Cd32     Cd     0.060710000000     0.541640000000     0.783710000000     0.507983   
Cd33     Cd     0.926140000000     0.164180000000     0.404810000000     0.508553   
Cd34     Cd     0.557690000000     0.287960000000     0.025570000000     0.508086   
Cd35     Cd     0.687420000000     0.418320000000     0.411770000000     0.507688   
Cd36     Cd     0.812370000000     0.041540000000     0.040490000000     0.508218   
Cd37     Cd     0.681330000000     0.167880000000     0.156080000000     0.508805   
Cd38     Cd     0.805700000000     0.293620000000     0.279340000000     0.508343   
Cd39     Cd     0.941410000000     0.412280000000     0.159020000000     0.508241   
Cd40     Cd     0.560710000000     0.041640000000     0.283710000000     0.507938   
Cd41     Cd     0.926140000000     0.164180000000     0.904810000000     0.508555   
Cd42     Cd     0.557690000000     0.287960000000     0.525570000000     0.508125   
Cd43     Cd     0.687420000000     0.418320000000     0.911770000000     0.50769    
Cd44     Cd     0.812370000000     0.041540000000     0.540490000000     0.508245   
Cd45     Cd     0.681330000000     0.167880000000     0.656080000000     0.508806   
Cd46     Cd     0.805700000000     0.293620000000     0.779340000000     0.508335   
Cd47     Cd     0.941410000000     0.412280000000     0.659020000000     0.508241   
Cd48     Cd     0.560710000000     0.041640000000     0.783710000000     0.50796    
Cd49     Cd     0.926140000000     0.664180000000     0.404810000000     0.508554   
Cd50     Cd     0.557690000000     0.787960000000     0.025570000000     0.508086   
Cd51     Cd     0.687420000000     0.918320000000     0.411770000000     0.507691   
Cd52     Cd     0.812370000000     0.541540000000     0.040490000000     0.508231   
Cd53     Cd     0.681330000000     0.667880000000     0.156080000000     0.508794   
Cd54     Cd     0.805700000000     0.793620000000     0.279340000000     0.508322   
Cd55     Cd     0.941410000000     0.912270000000     0.159020000000     0.508245   
Cd56     Cd     0.560710000000     0.541640000000     0.283710000000     0.50795    
Cd57     Cd     0.926140000000     0.664180000000     0.904810000000     0.508555   
Cd58     Cd     0.557690000000     0.787960000000     0.525570000000     0.508125   
Cd59     Cd     0.687420000000     0.918320000000     0.911770000000     0.507693   
Cd60     Cd     0.812370000000     0.541540000000     0.540490000000     0.508258   
Cd61     Cd     0.681330000000     0.667880000000     0.656080000000     0.508794   
Cd62     Cd     0.805700000000     0.793620000000     0.779340000000     0.508314   
Cd63     Cd     0.941410000000     0.912270000000     0.659020000000     0.508246   
Cd64     Cd     0.560710000000     0.541640000000     0.783710000000     0.507973   
H1       H      0.030970000000     0.976500000000     0.192170000000     0.0499541  
H2       H      0.025810000000     0.442890000000     0.229350000000     0.0497752  
H3       H      0.007360000000     0.464200000000     0.266630000000     0.0539816  
H4       H      0.501470000000     0.984950000000     0.174530000000     0.0542877  
H5       H      0.015010000000     0.018920000000     0.205550000000     0.0541341  
H6       H      0.482130000000     0.006320000000     0.211560000000     0.0508113  
H7       H      0.492970000000     0.430280000000     0.235570000000     0.053895   
H8       H      0.477270000000     0.472430000000     0.249800000000     0.0505945  
H9       H      0.342350000000     0.357320000000     0.196610000000     0.0503201  
H10      H      0.379950000000     0.320760000000     0.199920000000     0.0504379  
H11      H      0.421720000000     0.339800000000     0.214950000000     0.0544561  
H12      H      0.326800000000     0.367480000000     0.225640000000     0.0544768  
H13      H      0.361050000000     0.398720000000     0.209700000000     0.0538121  
H14      H      0.368680000000     0.386290000000     0.240650000000     0.049993   
H15      H      0.387470000000     0.308570000000     0.230980000000     0.0541272  
H16      H      0.406030000000     0.350060000000     0.243890000000     0.0498674  
H17      H      0.088360000000     0.107860000000     0.200780000000     0.050468   
H18      H      0.128510000000     0.073280000000     0.201580000000     0.0506315  
H19      H      0.170030000000     0.094990000000     0.213250000000     0.0543231  
H20      H      0.074820000000     0.117450000000     0.230870000000     0.0542834  
H21      H      0.105620000000     0.150330000000     0.212080000000     0.0536605  
H22      H      0.116590000000     0.138730000000     0.242460000000     0.0497243  
H23      H      0.139230000000     0.062140000000     0.232190000000     0.0537961  
H24      H      0.156160000000     0.104760000000     0.243150000000     0.0495213  
H25      H      0.219250000000     0.261370000000     0.213010000000     0.0504744  
H26      H      0.221240000000     0.223720000000     0.247330000000     0.0503687  
H27      H      0.239310000000     0.184400000000     0.228160000000     0.0539242  
H28      H      0.250200000000     0.277040000000     0.205030000000     0.0540765  
H29      H      0.235130000000     0.245040000000     0.172350000000     0.0542531  
H30      H      0.267400000000     0.237690000000     0.185580000000     0.0498678  
H31      H      0.253360000000     0.216400000000     0.260910000000     0.0539102  
H32      H      0.269870000000     0.200710000000     0.220090000000     0.0499859  
H33      H      0.400080000000     0.008670000000     0.103450000000     0.0503503  
H34      H      0.400080000000     0.474040000000     0.066020000000     0.0497011  
H35      H      0.388270000000     0.432110000000     0.083300000000     0.0532828  
H36      H      0.368210000000     0.021120000000     0.113380000000     0.0542495  
H37      H      0.386780000000     0.988460000000     0.143260000000     0.0543754  
H38      H      0.355070000000     0.979090000000     0.130100000000     0.0503953  
H39      H      0.368090000000     0.464620000000     0.053520000000     0.0534791  
H40      H      0.355940000000     0.443590000000     0.093050000000     0.0499548  
H41      H      0.278150000000     0.111820000000     0.120440000000     0.050373   
H42      H      0.241750000000     0.074550000000     0.122450000000     0.0505483  
H43      H      0.199160000000     0.090650000000     0.106080000000     0.0543559  
H44      H      0.293270000000     0.118430000000     0.090240000000     0.0543725  
H45      H      0.258570000000     0.150910000000     0.102210000000     0.0539208  
H46      H      0.250600000000     0.134100000000     0.073400000000     0.0502129  
H47      H      0.233840000000     0.058150000000     0.093410000000     0.0540882  
H48      H      0.213960000000     0.097250000000     0.075740000000     0.0498062  
H49      H      0.143270000000     0.016600000000     0.355650000000     0.0495806  
H50      H      0.151610000000     0.983220000000     0.317930000000     0.0498722  
H51      H      0.142460000000     0.439450000000     0.332180000000     0.0536735  
H52      H      0.109100000000     0.024370000000     0.362990000000     0.0535315  
H53      H      0.130130000000     0.493000000000     0.393380000000     0.0537941  
H54      H      0.100550000000     0.480910000000     0.378120000000     0.0502633  
H55      H      0.122600000000     0.971030000000     0.301780000000     0.0542298  
H56      H      0.108330000000     0.447500000000     0.339400000000     0.0504539  
H57      H      0.236650000000     0.327090000000     0.370900000000     0.049883   
H58      H      0.276980000000     0.360760000000     0.373080000000     0.0497434  
H59      H      0.291490000000     0.371180000000     0.330330000000     0.0540393  
H60      H      0.204050000000     0.339640000000     0.363530000000     0.0539276  
H61      H      0.225790000000     0.317490000000     0.326890000000     0.0540165  
H62      H      0.218130000000     0.350740000000     0.320670000000     0.0504826  
H63      H      0.269250000000     0.393950000000     0.366620000000     0.053822   
H64      H      0.259220000000     0.384240000000     0.322550000000     0.0502827  
H65      H      0.235670000000     0.015780000000     0.963720000000     0.0496281  
H66      H      0.220880000000     0.486390000000     0.002940000000     0.0499714  
H67      H      0.227820000000     0.441060000000     0.492750000000     0.0541568  
H68      H      0.270940000000     0.020660000000     0.959180000000     0.0534932  
H69      H      0.250950000000     0.988310000000     0.429300000000     0.0539147  
H70      H      0.277530000000     0.975480000000     0.448460000000     0.0501542  
H71      H      0.247120000000     0.473580000000     0.022540000000     0.0542689  
H72      H      0.263050000000     0.446180000000     0.488210000000     0.0502925  
H73      H      0.466180000000     0.344660000000     0.064630000000     0.0493646  
H74      H      0.004460000000     0.379770000000     0.063320000000     0.0493275  
H75      H      0.018480000000     0.391050000000     0.106160000000     0.0540308  
H76      H      0.475770000000     0.311890000000     0.070990000000     0.0537324  
H77      H      0.455450000000     0.334400000000     0.108450000000     0.0541739  
H78      H      0.488790000000     0.322820000000     0.114140000000     0.0504795  
H79      H      0.038270000000     0.369130000000     0.068380000000     0.053906   
H80      H      0.028430000000     0.358370000000     0.112450000000     0.0507657  
H81      H      0.105260000000     0.384810000000     0.981950000000     0.0505272  
H82      H      0.148350000000     0.358000000000     0.996260000000     0.0506215  
H83      H      0.142190000000     0.312460000000     0.985950000000     0.0540119  
H84      H      0.101980000000     0.391920000000     0.448760000000     0.0537592  
H85      H      0.072490000000     0.355640000000     0.963030000000     0.0542062  
H86      H      0.095810000000     0.346350000000     0.438760000000     0.0500205  
H87      H      0.171600000000     0.348790000000     0.471930000000     0.0545762  
H88      H      0.138670000000     0.319880000000     0.452860000000     0.0502383  
H89      H      0.139550000000     0.258930000000     0.096950000000     0.050806   
H90      H      0.139730000000     0.219940000000     0.063070000000     0.0508895  
H91      H      0.123140000000     0.180470000000     0.083050000000     0.0539646  
H92      H      0.107580000000     0.272940000000     0.104220000000     0.0536374  
H93      H      0.124220000000     0.242330000000     0.137620000000     0.0541553  
H94      H      0.092460000000     0.233310000000     0.124330000000     0.0493349  
H95      H      0.107970000000     0.211170000000     0.049600000000     0.0541535  
H96      H      0.091870000000     0.195790000000     0.090620000000     0.0497264  
H97      H      0.969370000000     0.097240000000     0.315670000000     0.0505546  
H98      H      0.010380000000     0.130390000000     0.323850000000     0.0505064  
H99      H      0.013010000000     0.140050000000     0.368840000000     0.0537233  
H100     H      0.975450000000     0.064030000000     0.323410000000     0.0539219  
H101     H      0.447930000000     0.087240000000     0.355820000000     0.0540659  
H102     H      0.478390000000     0.073930000000     0.368300000000     0.0496346  
H103     H      0.040590000000     0.116680000000     0.336480000000     0.0542086  
H104     H      0.518830000000     0.106740000000     0.376460000000     0.0497357  
H105     H      0.395530000000     0.107730000000     0.001330000000     0.050268   
H106     H      0.350580000000     0.132620000000     0.989150000000     0.0504496  
H107     H      0.344050000000     0.131550000000     0.443300000000     0.05408    
H108     H      0.394470000000     0.073100000000     0.001190000000     0.053673   
H109     H      0.416940000000     0.091720000000     0.462910000000     0.0538982  
H110     H      0.388220000000     0.072340000000     0.455380000000     0.0498366  
H111     H      0.321750000000     0.113300000000     0.981740000000     0.0543055  
H112     H      0.343200000000     0.096880000000     0.443410000000     0.0501696  
H113     H      0.335160000000     0.220810000000     0.366100000000     0.0503085  
H114     H      0.352240000000     0.194730000000     0.325680000000     0.0501653  
H115     H      0.370510000000     0.224880000000     0.294820000000     0.0544614  
H116     H      0.359980000000     0.231210000000     0.388510000000     0.0541123  
H117     H      0.343690000000     0.266820000000     0.360590000000     0.0534432  
H118     H      0.379070000000     0.261210000000     0.357750000000     0.0499189  
H119     H      0.387680000000     0.189500000000     0.322920000000     0.0537167  
H120     H      0.395730000000     0.235380000000     0.316760000000     0.0499752  
H121     H      0.455340000000     0.235240000000     0.984600000000     0.0496514  
H122     H      0.476190000000     0.256790000000     0.443470000000     0.0495672  
H123     H      0.024920000000     0.254500000000     0.445040000000     0.054064   
H124     H      0.454460000000     0.200620000000     0.985870000000     0.0536511  
H125     H      0.991140000000     0.220050000000     0.012100000000     0.0541503  
H126     H      0.003110000000     0.198350000000     0.988110000000     0.0503554  
H127     H      0.488040000000     0.235620000000     0.418960000000     0.0540773  
H128     H      0.024030000000     0.219890000000     0.446130000000     0.0506619  
H129     H      0.030970000000     0.976500000000     0.692170000000     0.0499227  
H130     H      0.025810000000     0.442890000000     0.729350000000     0.0497738  
H131     H      0.007360000000     0.464200000000     0.766630000000     0.0539823  
H132     H      0.501470000000     0.984950000000     0.674530000000     0.0542527  
H133     H      0.015010000000     0.018920000000     0.705550000000     0.0541436  
H134     H      0.482130000000     0.006320000000     0.711560000000     0.0508193  
H135     H      0.492970000000     0.430280000000     0.735570000000     0.0538941  
H136     H      0.477270000000     0.472430000000     0.749800000000     0.0505949  
H137     H      0.342350000000     0.357320000000     0.696610000000     0.0503213  
H138     H      0.379950000000     0.320760000000     0.699920000000     0.0504387  
H139     H      0.421720000000     0.339800000000     0.714950000000     0.0544559  
H140     H      0.326800000000     0.367480000000     0.725640000000     0.054477   
H141     H      0.361050000000     0.398720000000     0.709700000000     0.0538122  
H142     H      0.368680000000     0.386290000000     0.740650000000     0.0499929  
H143     H      0.387470000000     0.308570000000     0.730980000000     0.0541271  
H144     H      0.406030000000     0.350060000000     0.743890000000     0.0498673  
H145     H      0.088360000000     0.107860000000     0.700780000000     0.050469   
H146     H      0.128510000000     0.073280000000     0.701580000000     0.0506325  
H147     H      0.170030000000     0.094990000000     0.713250000000     0.0543232  
H148     H      0.074820000000     0.117450000000     0.730870000000     0.0542835  
H149     H      0.105620000000     0.150330000000     0.712080000000     0.0536605  
H150     H      0.116590000000     0.138730000000     0.742460000000     0.0497243  
H151     H      0.139230000000     0.062140000000     0.732190000000     0.0537965  
H152     H      0.156160000000     0.104760000000     0.743150000000     0.0495214  
H153     H      0.219250000000     0.261370000000     0.713010000000     0.0504772  
H154     H      0.221240000000     0.223720000000     0.747330000000     0.0503719  
H155     H      0.239310000000     0.184400000000     0.728160000000     0.0539233  
H156     H      0.250200000000     0.277040000000     0.705030000000     0.0540811  
H157     H      0.235130000000     0.245040000000     0.672350000000     0.0542548  
H158     H      0.267400000000     0.237690000000     0.685580000000     0.0498688  
H159     H      0.253360000000     0.216400000000     0.760910000000     0.0539088  
H160     H      0.269870000000     0.200710000000     0.720090000000     0.049984   
H161     H      0.400080000000     0.008670000000     0.603460000000     0.05032    
H162     H      0.400080000000     0.474040000000     0.566020000000     0.0497098  
H163     H      0.388270000000     0.432110000000     0.583300000000     0.0532897  
H164     H      0.368210000000     0.021120000000     0.613380000000     0.0542177  
H165     H      0.386780000000     0.988460000000     0.643260000000     0.0543844  
H166     H      0.355070000000     0.979090000000     0.630100000000     0.0504056  
H167     H      0.368090000000     0.464620000000     0.553520000000     0.053489   
H168     H      0.355940000000     0.443590000000     0.593050000000     0.0499596  
H169     H      0.278150000000     0.111820000000     0.620440000000     0.0503531  
H170     H      0.241750000000     0.074550000000     0.622450000000     0.0505478  
H171     H      0.199160000000     0.090650000000     0.606080000000     0.05436    
H172     H      0.293270000000     0.118430000000     0.590240000000     0.0543635  
H173     H      0.258570000000     0.150910000000     0.602210000000     0.0539299  
H174     H      0.250600000000     0.134100000000     0.573400000000     0.050227   
H175     H      0.233840000000     0.058150000000     0.593410000000     0.0540918  
H176     H      0.213960000000     0.097250000000     0.575740000000     0.0498151  
H177     H      0.143270000000     0.016600000000     0.855650000000     0.0495809  
H178     H      0.151610000000     0.983220000000     0.817930000000     0.0498721  
H179     H      0.142460000000     0.439450000000     0.832180000000     0.0536712  
H180     H      0.109100000000     0.024370000000     0.862990000000     0.0535251  
H181     H      0.130130000000     0.493000000000     0.893380000000     0.053799   
H182     H      0.100550000000     0.480910000000     0.878120000000     0.0502668  
H183     H      0.122600000000     0.971030000000     0.801780000000     0.0542272  
H184     H      0.108330000000     0.447500000000     0.839390000000     0.0504469  
H185     H      0.236650000000     0.327090000000     0.870900000000     0.0498861  
H186     H      0.276980000000     0.360760000000     0.873080000000     0.0497468  
H187     H      0.291490000000     0.371180000000     0.830330000000     0.05404    
H188     H      0.204050000000     0.339640000000     0.863530000000     0.0539288  
H189     H      0.225790000000     0.317490000000     0.826890000000     0.0540173  
H190     H      0.218130000000     0.350740000000     0.820670000000     0.0504824  
H191     H      0.269250000000     0.393950000000     0.866620000000     0.053824   
H192     H      0.259220000000     0.384240000000     0.822550000000     0.0502825  
H193     H      0.235670000000     0.015780000000     0.463720000000     0.0496141  
H194     H      0.220880000000     0.486390000000     0.502940000000     0.0499738  
H195     H      0.227820000000     0.441060000000     0.992750000000     0.0541604  
H196     H      0.270940000000     0.020660000000     0.459180000000     0.0534854  
H197     H      0.250950000000     0.988310000000     0.929310000000     0.0539347  
H198     H      0.277530000000     0.975480000000     0.948460000000     0.0501742  
H199     H      0.247120000000     0.473580000000     0.522540000000     0.0542567  
H200     H      0.263050000000     0.446180000000     0.988210000000     0.0502958  
H201     H      0.466180000000     0.344660000000     0.564630000000     0.0493756  
H202     H      0.004460000000     0.379770000000     0.563320000000     0.049338   
H203     H      0.018480000000     0.391050000000     0.606160000000     0.054034   
H204     H      0.475770000000     0.311890000000     0.570990000000     0.0537422  
H205     H      0.455450000000     0.334400000000     0.608450000000     0.0541682  
H206     H      0.488790000000     0.322820000000     0.614150000000     0.0504677  
H207     H      0.038270000000     0.369130000000     0.568380000000     0.0539156  
H208     H      0.028430000000     0.358370000000     0.612450000000     0.0507661  
H209     H      0.105260000000     0.384810000000     0.481940000000     0.0505324  
H210     H      0.148350000000     0.358000000000     0.496260000000     0.0506049  
H211     H      0.142190000000     0.312460000000     0.485950000000     0.0539913  
H212     H      0.101980000000     0.391920000000     0.948760000000     0.0537539  
H213     H      0.072490000000     0.355640000000     0.463030000000     0.0541954  
H214     H      0.095810000000     0.346350000000     0.938760000000     0.050025   
H215     H      0.171600000000     0.348790000000     0.971930000000     0.0545856  
H216     H      0.138670000000     0.319880000000     0.952860000000     0.0502421  
H217     H      0.139550000000     0.258930000000     0.596950000000     0.050811   
H218     H      0.139730000000     0.219940000000     0.563070000000     0.0508987  
H219     H      0.123140000000     0.180470000000     0.583050000000     0.0539705  
H220     H      0.107580000000     0.272940000000     0.604220000000     0.0536398  
H221     H      0.124220000000     0.242330000000     0.637620000000     0.0541558  
H222     H      0.092460000000     0.233310000000     0.624330000000     0.0493353  
H223     H      0.107970000000     0.211170000000     0.549600000000     0.0541647  
H224     H      0.091870000000     0.195790000000     0.590620000000     0.0497301  
H225     H      0.969370000000     0.097240000000     0.815670000000     0.0505543  
H226     H      0.010380000000     0.130390000000     0.823850000000     0.0505107  
H227     H      0.013010000000     0.140050000000     0.868840000000     0.0537258  
H228     H      0.975450000000     0.064030000000     0.823410000000     0.0539223  
H229     H      0.447930000000     0.087240000000     0.855820000000     0.054067   
H230     H      0.478390000000     0.073930000000     0.868300000000     0.0496376  
H231     H      0.040590000000     0.116680000000     0.836480000000     0.0542114  
H232     H      0.518830000000     0.106740000000     0.876460000000     0.0497399  
H233     H      0.395530000000     0.107730000000     0.501330000000     0.0503702  
H234     H      0.350580000000     0.132620000000     0.489150000000     0.0504393  
H235     H      0.344050000000     0.131550000000     0.943300000000     0.0540857  
H236     H      0.394470000000     0.073100000000     0.501190000000     0.0537655  
H237     H      0.416940000000     0.091720000000     0.962910000000     0.0539254  
H238     H      0.388220000000     0.072340000000     0.955380000000     0.0498598  
H239     H      0.321750000000     0.113300000000     0.481740000000     0.0542902  
H240     H      0.343200000000     0.096880000000     0.943410000000     0.0501781  
H241     H      0.335160000000     0.220810000000     0.866100000000     0.0503109  
H242     H      0.352240000000     0.194730000000     0.825680000000     0.0501652  
H243     H      0.370510000000     0.224880000000     0.794820000000     0.0544605  
H244     H      0.359980000000     0.231210000000     0.888510000000     0.0541164  
H245     H      0.343690000000     0.266820000000     0.860590000000     0.0534457  
H246     H      0.379070000000     0.261210000000     0.857750000000     0.0499206  
H247     H      0.387680000000     0.189500000000     0.822920000000     0.0537163  
H248     H      0.395730000000     0.235380000000     0.816760000000     0.049975   
H249     H      0.455340000000     0.235240000000     0.484600000000     0.0496214  
H250     H      0.476190000000     0.256790000000     0.943470000000     0.0495689  
H251     H      0.024920000000     0.254500000000     0.945040000000     0.0540811  
H252     H      0.454460000000     0.200620000000     0.485870000000     0.0536226  
H253     H      0.991140000000     0.220050000000     0.512100000000     0.0542364  
H254     H      0.003110000000     0.198350000000     0.488110000000     0.0503729  
H255     H      0.488040000000     0.235620000000     0.918960000000     0.0540751  
H256     H      0.024030000000     0.219890000000     0.946130000000     0.0506803  
H257     H      0.030970000000     0.476500000000     0.192170000000     0.0499548  
H258     H      0.025810000000     0.942890000000     0.229350000000     0.0497681  
H259     H      0.007360000000     0.964200000000     0.266630000000     0.054012   
H260     H      0.501470000000     0.484950000000     0.174530000000     0.0542828  
H261     H      0.015010000000     0.518920000000     0.205550000000     0.0541218  
H262     H      0.482130000000     0.506320000000     0.211560000000     0.0508136  
H263     H      0.492970000000     0.930270000000     0.235570000000     0.0538798  
H264     H      0.477270000000     0.972430000000     0.249800000000     0.0506311  
H265     H      0.342350000000     0.857320000000     0.196610000000     0.0503053  
H266     H      0.379950000000     0.820760000000     0.199920000000     0.0504111  
H267     H      0.421720000000     0.839800000000     0.214950000000     0.0544607  
H268     H      0.326800000000     0.867480000000     0.225640000000     0.0544686  
H269     H      0.361050000000     0.898720000000     0.209700000000     0.053824   
H270     H      0.368680000000     0.886290000000     0.240650000000     0.0500058  
H271     H      0.387470000000     0.808570000000     0.230980000000     0.0540974  
H272     H      0.406030000000     0.850060000000     0.243890000000     0.0498742  
H273     H      0.088360000000     0.607860000000     0.200780000000     0.050472   
H274     H      0.128510000000     0.573280000000     0.201580000000     0.0506111  
H275     H      0.170030000000     0.594990000000     0.213250000000     0.0543392  
H276     H      0.074820000000     0.617450000000     0.230870000000     0.0542847  
H277     H      0.105620000000     0.650330000000     0.212080000000     0.0536609  
H278     H      0.116590000000     0.638730000000     0.242460000000     0.0497251  
H279     H      0.139230000000     0.562140000000     0.232190000000     0.0537752  
H280     H      0.156160000000     0.604760000000     0.243150000000     0.0495336  
H281     H      0.219250000000     0.761380000000     0.213010000000     0.0504743  
H282     H      0.221240000000     0.723720000000     0.247330000000     0.0503705  
H283     H      0.239310000000     0.684400000000     0.228160000000     0.0539258  
H284     H      0.250200000000     0.777040000000     0.205030000000     0.0540808  
H285     H      0.235130000000     0.745040000000     0.172350000000     0.0542225  
H286     H      0.267400000000     0.737690000000     0.185580000000     0.0498374  
H287     H      0.253360000000     0.716400000000     0.260910000000     0.0539116  
H288     H      0.269870000000     0.700710000000     0.220090000000     0.049986   
H289     H      0.400080000000     0.508670000000     0.103450000000     0.0503498  
H290     H      0.400080000000     0.974040000000     0.066020000000     0.0497591  
H291     H      0.388270000000     0.932110000000     0.083300000000     0.053276   
H292     H      0.368210000000     0.521120000000     0.113380000000     0.0542318  
H293     H      0.386780000000     0.488460000000     0.143260000000     0.0543705  
H294     H      0.355070000000     0.479090000000     0.130100000000     0.0503947  
H295     H      0.368090000000     0.964620000000     0.053520000000     0.0535388  
H296     H      0.355940000000     0.943590000000     0.093050000000     0.0499547  
H297     H      0.278150000000     0.611820000000     0.120440000000     0.0503775  
H298     H      0.241750000000     0.574550000000     0.122450000000     0.0505594  
H299     H      0.199160000000     0.590650000000     0.106080000000     0.0543642  
H300     H      0.293270000000     0.618430000000     0.090240000000     0.0543735  
H301     H      0.258570000000     0.650910000000     0.102210000000     0.0539212  
H302     H      0.250600000000     0.634100000000     0.073400000000     0.0502137  
H303     H      0.233840000000     0.558150000000     0.093410000000     0.0541032  
H304     H      0.213960000000     0.597250000000     0.075740000000     0.0498122  
H305     H      0.143270000000     0.516600000000     0.355650000000     0.0495757  
H306     H      0.151610000000     0.483220000000     0.317930000000     0.0498425  
H307     H      0.142460000000     0.939450000000     0.332180000000     0.0536833  
H308     H      0.109100000000     0.524370000000     0.362990000000     0.0535128  
H309     H      0.130130000000     0.993000000000     0.393380000000     0.0537888  
H310     H      0.100550000000     0.980910000000     0.378120000000     0.0502495  
H311     H      0.122600000000     0.471030000000     0.301780000000     0.0542025  
H312     H      0.108330000000     0.947500000000     0.339400000000     0.0504686  
H313     H      0.236650000000     0.827090000000     0.370900000000     0.0498849  
H314     H      0.276980000000     0.860760000000     0.373080000000     0.0497454  
H315     H      0.291490000000     0.871180000000     0.330330000000     0.0540524  
H316     H      0.204050000000     0.839640000000     0.363530000000     0.0539301  
H317     H      0.225790000000     0.817490000000     0.326890000000     0.0540133  
H318     H      0.218130000000     0.850750000000     0.320670000000     0.0504777  
H319     H      0.269250000000     0.893950000000     0.366620000000     0.0538284  
H320     H      0.259220000000     0.884240000000     0.322550000000     0.05029    
H321     H      0.235670000000     0.515780000000     0.963720000000     0.0496325  
H322     H      0.220880000000     0.986380000000     0.002940000000     0.0500077  
H323     H      0.227820000000     0.941060000000     0.492750000000     0.0541584  
H324     H      0.270940000000     0.520660000000     0.959180000000     0.053485   
H325     H      0.250950000000     0.488310000000     0.429300000000     0.0538898  
H326     H      0.277530000000     0.475480000000     0.448460000000     0.0501378  
H327     H      0.247120000000     0.973580000000     0.022540000000     0.0543045  
H328     H      0.263050000000     0.946180000000     0.488210000000     0.0503007  
H329     H      0.466180000000     0.844660000000     0.064630000000     0.0493666  
H330     H      0.004460000000     0.879770000000     0.063320000000     0.0493259  
H331     H      0.018480000000     0.891050000000     0.106160000000     0.0540384  
H332     H      0.475770000000     0.811890000000     0.070990000000     0.0537323  
H333     H      0.455450000000     0.834400000000     0.108450000000     0.0541737  
H334     H      0.488790000000     0.822820000000     0.114140000000     0.0504787  
H335     H      0.038270000000     0.869140000000     0.068380000000     0.0538929  
H336     H      0.028430000000     0.858370000000     0.112450000000     0.0507701  
H337     H      0.105260000000     0.884810000000     0.981950000000     0.0505334  
H338     H      0.148350000000     0.858000000000     0.996260000000     0.0506246  
H339     H      0.142190000000     0.812460000000     0.985950000000     0.0540123  
H340     H      0.101980000000     0.891920000000     0.448760000000     0.0537631  
H341     H      0.072490000000     0.855640000000     0.963030000000     0.0542117  
H342     H      0.095810000000     0.846360000000     0.438760000000     0.0500227  
H343     H      0.171600000000     0.848790000000     0.471930000000     0.0545771  
H344     H      0.138670000000     0.819880000000     0.452860000000     0.0502393  
H345     H      0.139550000000     0.758930000000     0.096950000000     0.0508099  
H346     H      0.139730000000     0.719930000000     0.063070000000     0.0508868  
H347     H      0.123140000000     0.680470000000     0.083050000000     0.0539691  
H348     H      0.107580000000     0.772940000000     0.104220000000     0.0536383  
H349     H      0.124220000000     0.742330000000     0.137620000000     0.0541597  
H350     H      0.092460000000     0.733310000000     0.124330000000     0.0493331  
H351     H      0.107970000000     0.711170000000     0.049600000000     0.0541535  
H352     H      0.091870000000     0.695790000000     0.090620000000     0.0497263  
H353     H      0.969370000000     0.597240000000     0.315670000000     0.0505583  
H354     H      0.010380000000     0.630390000000     0.323850000000     0.0505059  
H355     H      0.013010000000     0.640050000000     0.368840000000     0.0537244  
H356     H      0.975450000000     0.564030000000     0.323410000000     0.0539341  
H357     H      0.447930000000     0.587240000000     0.355820000000     0.0540748  
H358     H      0.478390000000     0.573930000000     0.368300000000     0.049647   
H359     H      0.040590000000     0.616680000000     0.336480000000     0.0542105  
H360     H      0.518830000000     0.606740000000     0.376460000000     0.0497424  
H361     H      0.395530000000     0.607730000000     0.001330000000     0.0502656  
H362     H      0.350580000000     0.632620000000     0.989150000000     0.0504465  
H363     H      0.344050000000     0.631550000000     0.443300000000     0.054083   
H364     H      0.394470000000     0.573100000000     0.001190000000     0.0536788  
H365     H      0.416940000000     0.591720000000     0.462910000000     0.053907   
H366     H      0.388220000000     0.572340000000     0.455380000000     0.0498525  
H367     H      0.321750000000     0.613300000000     0.981740000000     0.0543042  
H368     H      0.343200000000     0.596880000000     0.443410000000     0.0501799  
H369     H      0.335160000000     0.720810000000     0.366100000000     0.0503115  
H370     H      0.352240000000     0.694730000000     0.325680000000     0.0501678  
H371     H      0.370510000000     0.724880000000     0.294820000000     0.0544623  
H372     H      0.359980000000     0.731210000000     0.388510000000     0.0541086  
H373     H      0.343690000000     0.766820000000     0.360590000000     0.0534428  
H374     H      0.379070000000     0.761210000000     0.357750000000     0.0499162  
H375     H      0.387680000000     0.689500000000     0.322920000000     0.0537142  
H376     H      0.395730000000     0.735380000000     0.316760000000     0.0499733  
H377     H      0.455340000000     0.735240000000     0.984600000000     0.0496496  
H378     H      0.476190000000     0.756790000000     0.443470000000     0.0495297  
H379     H      0.024920000000     0.754500000000     0.445040000000     0.0540742  
H380     H      0.454460000000     0.700620000000     0.985870000000     0.0536509  
H381     H      0.991140000000     0.720050000000     0.012100000000     0.0541517  
H382     H      0.003110000000     0.698350000000     0.988110000000     0.0503577  
H383     H      0.488040000000     0.735620000000     0.418960000000     0.054043   
H384     H      0.024030000000     0.719890000000     0.446130000000     0.0506721  
H385     H      0.030970000000     0.476500000000     0.692170000000     0.0499234  
H386     H      0.025810000000     0.942890000000     0.729350000000     0.0497667  
H387     H      0.007360000000     0.964200000000     0.766630000000     0.0540126  
H388     H      0.501470000000     0.484950000000     0.674530000000     0.0542478  
H389     H      0.015010000000     0.518920000000     0.705550000000     0.0541313  
H390     H      0.482130000000     0.506320000000     0.711560000000     0.0508216  
H391     H      0.492970000000     0.930270000000     0.735570000000     0.0538789  
H392     H      0.477270000000     0.972430000000     0.749800000000     0.0506315  
H393     H      0.342350000000     0.857320000000     0.696610000000     0.0503065  
H394     H      0.379950000000     0.820760000000     0.699920000000     0.050412   
H395     H      0.421720000000     0.839800000000     0.714950000000     0.0544605  
H396     H      0.326800000000     0.867480000000     0.725640000000     0.0544688  
H397     H      0.361050000000     0.898720000000     0.709700000000     0.0538241  
H398     H      0.368680000000     0.886290000000     0.740650000000     0.0500056  
H399     H      0.387470000000     0.808570000000     0.730980000000     0.0540972  
H400     H      0.406030000000     0.850060000000     0.743890000000     0.049874   
H401     H      0.088360000000     0.607860000000     0.700780000000     0.050473   
H402     H      0.128510000000     0.573280000000     0.701580000000     0.0506121  
H403     H      0.170030000000     0.594990000000     0.713250000000     0.0543393  
H404     H      0.074820000000     0.617450000000     0.730870000000     0.0542848  
H405     H      0.105620000000     0.650330000000     0.712080000000     0.0536609  
H406     H      0.116590000000     0.638730000000     0.742460000000     0.0497251  
H407     H      0.139230000000     0.562140000000     0.732190000000     0.0537756  
H408     H      0.156160000000     0.604760000000     0.743150000000     0.0495337  
H409     H      0.219250000000     0.761380000000     0.713010000000     0.0504771  
H410     H      0.221240000000     0.723720000000     0.747330000000     0.0503738  
H411     H      0.239310000000     0.684400000000     0.728160000000     0.0539249  
H412     H      0.250200000000     0.777040000000     0.705030000000     0.0540853  
H413     H      0.235130000000     0.745040000000     0.672350000000     0.0542242  
H414     H      0.267400000000     0.737690000000     0.685580000000     0.0498384  
H415     H      0.253360000000     0.716400000000     0.760910000000     0.0539102  
H416     H      0.269870000000     0.700710000000     0.720090000000     0.0499841  
H417     H      0.400080000000     0.508670000000     0.603460000000     0.0503195  
H418     H      0.400080000000     0.974040000000     0.566020000000     0.0497677  
H419     H      0.388270000000     0.932110000000     0.583300000000     0.0532829  
H420     H      0.368210000000     0.521120000000     0.613380000000     0.0542001  
H421     H      0.386780000000     0.488460000000     0.643260000000     0.0543795  
H422     H      0.355070000000     0.479090000000     0.630100000000     0.050405   
H423     H      0.368090000000     0.964620000000     0.553520000000     0.0535487  
H424     H      0.355940000000     0.943590000000     0.593050000000     0.0499595  
H425     H      0.278150000000     0.611820000000     0.620440000000     0.0503575  
H426     H      0.241750000000     0.574550000000     0.622450000000     0.0505589  
H427     H      0.199160000000     0.590650000000     0.606080000000     0.0543683  
H428     H      0.293270000000     0.618430000000     0.590240000000     0.0543645  
H429     H      0.258570000000     0.650910000000     0.602210000000     0.0539303  
H430     H      0.250600000000     0.634100000000     0.573400000000     0.0502278  
H431     H      0.233840000000     0.558150000000     0.593410000000     0.0541069  
H432     H      0.213960000000     0.597250000000     0.575740000000     0.0498212  
H433     H      0.143270000000     0.516600000000     0.855650000000     0.049576   
H434     H      0.151610000000     0.483220000000     0.817930000000     0.0498425  
H435     H      0.142460000000     0.939450000000     0.832180000000     0.053681   
H436     H      0.109100000000     0.524370000000     0.862990000000     0.0535064  
H437     H      0.130130000000     0.993000000000     0.893380000000     0.0537936  
H438     H      0.100550000000     0.980910000000     0.878120000000     0.0502531  
H439     H      0.122600000000     0.471030000000     0.801780000000     0.0542     
H440     H      0.108330000000     0.947500000000     0.839390000000     0.0504617  
H441     H      0.236650000000     0.827090000000     0.870900000000     0.049888   
H442     H      0.276980000000     0.860760000000     0.873080000000     0.0497488  
H443     H      0.291490000000     0.871180000000     0.830330000000     0.0540531  
H444     H      0.204050000000     0.839640000000     0.863530000000     0.0539314  
H445     H      0.225790000000     0.817490000000     0.826890000000     0.0540141  
H446     H      0.218130000000     0.850750000000     0.820670000000     0.0504774  
H447     H      0.269250000000     0.893950000000     0.866620000000     0.0538304  
H448     H      0.259220000000     0.884240000000     0.822550000000     0.0502898  
H449     H      0.235670000000     0.515780000000     0.463720000000     0.0496185  
H450     H      0.220880000000     0.986380000000     0.502940000000     0.0500101  
H451     H      0.227820000000     0.941060000000     0.992750000000     0.054162   
H452     H      0.270940000000     0.520660000000     0.459180000000     0.0534772  
H453     H      0.250950000000     0.488310000000     0.929310000000     0.0539098  
H454     H      0.277530000000     0.475480000000     0.948460000000     0.0501578  
H455     H      0.247120000000     0.973580000000     0.522540000000     0.0542923  
H456     H      0.263050000000     0.946180000000     0.988210000000     0.050304   
H457     H      0.466180000000     0.844660000000     0.564630000000     0.0493776  
H458     H      0.004460000000     0.879770000000     0.563320000000     0.0493365  
H459     H      0.018480000000     0.891050000000     0.606160000000     0.0540415  
H460     H      0.475770000000     0.811890000000     0.570990000000     0.0537421  
H461     H      0.455450000000     0.834400000000     0.608450000000     0.054168   
H462     H      0.488790000000     0.822820000000     0.614150000000     0.0504669  
H463     H      0.038270000000     0.869140000000     0.568380000000     0.0539026  
H464     H      0.028430000000     0.858370000000     0.612450000000     0.0507705  
H465     H      0.105260000000     0.884810000000     0.481940000000     0.0505386  
H466     H      0.148350000000     0.858000000000     0.496260000000     0.050608   
H467     H      0.142190000000     0.812460000000     0.485950000000     0.0539918  
H468     H      0.101980000000     0.891920000000     0.948760000000     0.0537578  
H469     H      0.072490000000     0.855640000000     0.463030000000     0.054201   
H470     H      0.095810000000     0.846360000000     0.938760000000     0.0500272  
H471     H      0.171600000000     0.848790000000     0.971930000000     0.0545865  
H472     H      0.138670000000     0.819880000000     0.952860000000     0.0502431  
H473     H      0.139550000000     0.758930000000     0.596950000000     0.050815   
H474     H      0.139730000000     0.719930000000     0.563070000000     0.050896   
H475     H      0.123140000000     0.680470000000     0.583050000000     0.053975   
H476     H      0.107580000000     0.772940000000     0.604220000000     0.0536407  
H477     H      0.124220000000     0.742330000000     0.637620000000     0.0541603  
H478     H      0.092460000000     0.733310000000     0.624330000000     0.0493335  
H479     H      0.107970000000     0.711170000000     0.549600000000     0.0541647  
H480     H      0.091870000000     0.695790000000     0.590620000000     0.04973    
H481     H      0.969370000000     0.597240000000     0.815670000000     0.050558   
H482     H      0.010380000000     0.630390000000     0.823850000000     0.0505103  
H483     H      0.013010000000     0.640050000000     0.868840000000     0.0537269  
H484     H      0.975450000000     0.564030000000     0.823410000000     0.0539345  
H485     H      0.447930000000     0.587240000000     0.855820000000     0.0540759  
H486     H      0.478390000000     0.573930000000     0.868300000000     0.04965    
H487     H      0.040590000000     0.616680000000     0.836480000000     0.0542134  
H488     H      0.518830000000     0.606740000000     0.876460000000     0.0497465  
H489     H      0.395530000000     0.607730000000     0.501330000000     0.0503678  
H490     H      0.350580000000     0.632620000000     0.489150000000     0.0504362  
H491     H      0.344050000000     0.631550000000     0.943300000000     0.0540887  
H492     H      0.394470000000     0.573100000000     0.501190000000     0.0537714  
H493     H      0.416940000000     0.591720000000     0.962910000000     0.0539341  
H494     H      0.388220000000     0.572340000000     0.955380000000     0.0498757  
H495     H      0.321750000000     0.613300000000     0.481740000000     0.0542889  
H496     H      0.343200000000     0.596880000000     0.943410000000     0.0501884  
H497     H      0.335160000000     0.720810000000     0.866100000000     0.0503139  
H498     H      0.352240000000     0.694730000000     0.825680000000     0.0501678  
H499     H      0.370510000000     0.724880000000     0.794820000000     0.0544614  
H500     H      0.359980000000     0.731210000000     0.888510000000     0.0541127  
H501     H      0.343690000000     0.766820000000     0.860590000000     0.0534454  
H502     H      0.379070000000     0.761210000000     0.857750000000     0.0499178  
H503     H      0.387680000000     0.689500000000     0.822920000000     0.0537139  
H504     H      0.395730000000     0.735380000000     0.816760000000     0.0499731  
H505     H      0.455340000000     0.735240000000     0.484600000000     0.0496196  
H506     H      0.476190000000     0.756790000000     0.943470000000     0.0495313  
H507     H      0.024920000000     0.754500000000     0.945040000000     0.0540913  
H508     H      0.454460000000     0.700620000000     0.485870000000     0.0536224  
H509     H      0.991140000000     0.720050000000     0.512100000000     0.0542377  
H510     H      0.003110000000     0.698350000000     0.488110000000     0.0503753  
H511     H      0.488040000000     0.735620000000     0.918960000000     0.0540407  
H512     H      0.024030000000     0.719890000000     0.946130000000     0.0506905  
H513     H      0.530970000000     0.976500000000     0.192170000000     0.0499543  
H514     H      0.525810000000     0.442890000000     0.229350000000     0.0497713  
H515     H      0.507360000000     0.464200000000     0.266630000000     0.0539952  
H516     H      0.001470000000     0.984950000000     0.174530000000     0.0542867  
H517     H      0.515010000000     0.018920000000     0.205550000000     0.054135   
H518     H      0.982130000000     0.006320000000     0.211560000000     0.0508104  
H519     H      0.992970000000     0.430280000000     0.235570000000     0.0538993  
H520     H      0.977260000000     0.472430000000     0.249800000000     0.0505708  
H521     H      0.842350000000     0.357320000000     0.196610000000     0.05029    
H522     H      0.879950000000     0.320760000000     0.199920000000     0.0504368  
H523     H      0.921720000000     0.339800000000     0.214950000000     0.0544566  
H524     H      0.826800000000     0.367480000000     0.225640000000     0.0544427  
H525     H      0.861050000000     0.398720000000     0.209700000000     0.0538208  
H526     H      0.868680000000     0.386290000000     0.240650000000     0.0500002  
H527     H      0.887470000000     0.308570000000     0.230980000000     0.0541263  
H528     H      0.906030000000     0.350060000000     0.243890000000     0.0498675  
H529     H      0.588360000000     0.107860000000     0.200780000000     0.0504672  
H530     H      0.628510000000     0.073280000000     0.201580000000     0.0506033  
H531     H      0.670030000000     0.094990000000     0.213250000000     0.0543329  
H532     H      0.574820000000     0.117450000000     0.230870000000     0.0542833  
H533     H      0.605620000000     0.150330000000     0.212080000000     0.0536614  
H534     H      0.616590000000     0.138730000000     0.242460000000     0.0497249  
H535     H      0.639230000000     0.062140000000     0.232190000000     0.053766   
H536     H      0.656160000000     0.104760000000     0.243150000000     0.0495304  
H537     H      0.719250000000     0.261370000000     0.213010000000     0.0504747  
H538     H      0.721240000000     0.223720000000     0.247330000000     0.0503724  
H539     H      0.739310000000     0.184400000000     0.228160000000     0.0539112  
H540     H      0.750200000000     0.277040000000     0.205030000000     0.0540769  
H541     H      0.735130000000     0.245040000000     0.172350000000     0.0542528  
H542     H      0.767400000000     0.237690000000     0.185580000000     0.0498672  
H543     H      0.753360000000     0.216400000000     0.260910000000     0.0539145  
H544     H      0.769880000000     0.200710000000     0.220090000000     0.0499629  
H545     H      0.900080000000     0.008670000000     0.103450000000     0.0503494  
H546     H      0.900080000000     0.474040000000     0.066020000000     0.0496972  
H547     H      0.888270000000     0.432110000000     0.083300000000     0.0533009  
H548     H      0.868210000000     0.021120000000     0.113380000000     0.0542484  
H549     H      0.886780000000     0.988460000000     0.143260000000     0.0543747  
H550     H      0.855070000000     0.979090000000     0.130100000000     0.0503956  
H551     H      0.868090000000     0.464620000000     0.053520000000     0.0534791  
H552     H      0.855940000000     0.443590000000     0.093050000000     0.0499753  
H553     H      0.778150000000     0.111820000000     0.120440000000     0.0503748  
H554     H      0.741750000000     0.074550000000     0.122450000000     0.0505489  
H555     H      0.699160000000     0.090650000000     0.106080000000     0.0543578  
H556     H      0.793270000000     0.118430000000     0.090240000000     0.0543725  
H557     H      0.758570000000     0.150910000000     0.102210000000     0.0539289  
H558     H      0.750600000000     0.134100000000     0.073400000000     0.0502137  
H559     H      0.733840000000     0.058150000000     0.093410000000     0.0540887  
H560     H      0.713960000000     0.097250000000     0.075740000000     0.0498075  
H561     H      0.643270000000     0.016600000000     0.355650000000     0.0495802  
H562     H      0.651610000000     0.983220000000     0.317930000000     0.0498712  
H563     H      0.642460000000     0.439450000000     0.332180000000     0.0536709  
H564     H      0.609100000000     0.024370000000     0.362990000000     0.0535329  
H565     H      0.630130000000     0.493000000000     0.393380000000     0.0537876  
H566     H      0.600550000000     0.480910000000     0.378120000000     0.0502629  
H567     H      0.622600000000     0.971030000000     0.301780000000     0.0542362  
H568     H      0.608330000000     0.447500000000     0.339400000000     0.0504581  
H569     H      0.736660000000     0.327090000000     0.370900000000     0.0498661  
H570     H      0.776980000000     0.360760000000     0.373080000000     0.0497434  
H571     H      0.791490000000     0.371180000000     0.330330000000     0.0540654  
H572     H      0.704040000000     0.339640000000     0.363530000000     0.0539055  
H573     H      0.725790000000     0.317490000000     0.326890000000     0.0540231  
H574     H      0.718130000000     0.350740000000     0.320670000000     0.0504887  
H575     H      0.769240000000     0.393950000000     0.366620000000     0.0538333  
H576     H      0.759220000000     0.384240000000     0.322550000000     0.0503005  
H577     H      0.735670000000     0.015780000000     0.963720000000     0.0496331  
H578     H      0.720880000000     0.486390000000     0.002940000000     0.0499754  
H579     H      0.727820000000     0.441060000000     0.492750000000     0.054157   
H580     H      0.770940000000     0.020660000000     0.959180000000     0.0534972  
H581     H      0.750950000000     0.988310000000     0.429300000000     0.0539142  
H582     H      0.777530000000     0.975480000000     0.448460000000     0.0501515  
H583     H      0.747120000000     0.473580000000     0.022540000000     0.0542722  
H584     H      0.763050000000     0.446180000000     0.488210000000     0.0502902  
H585     H      0.966180000000     0.344660000000     0.064630000000     0.0493662  
H586     H      0.504460000000     0.379770000000     0.063320000000     0.0493287  
H587     H      0.518480000000     0.391050000000     0.106160000000     0.0540317  
H588     H      0.975770000000     0.311890000000     0.070990000000     0.0537341  
H589     H      0.955450000000     0.334400000000     0.108450000000     0.0541708  
H590     H      0.988800000000     0.322820000000     0.114140000000     0.050473   
H591     H      0.538270000000     0.369130000000     0.068380000000     0.0539062  
H592     H      0.528430000000     0.358370000000     0.112450000000     0.0507677  
H593     H      0.605250000000     0.384810000000     0.981950000000     0.0505145  
H594     H      0.648350000000     0.358000000000     0.996260000000     0.0505927  
H595     H      0.642190000000     0.312460000000     0.985950000000     0.0540202  
H596     H      0.601980000000     0.391920000000     0.448760000000     0.0537535  
H597     H      0.572490000000     0.355640000000     0.963030000000     0.0542085  
H598     H      0.595810000000     0.346350000000     0.438760000000     0.0500228  
H599     H      0.671600000000     0.348790000000     0.471930000000     0.0545407  
H600     H      0.638670000000     0.319880000000     0.452860000000     0.0502456  
H601     H      0.639550000000     0.258930000000     0.096950000000     0.0508056  
H602     H      0.639730000000     0.219940000000     0.063070000000     0.050885   
H603     H      0.623140000000     0.180470000000     0.083050000000     0.0539771  
H604     H      0.607580000000     0.272940000000     0.104220000000     0.0536374  
H605     H      0.624220000000     0.242330000000     0.137620000000     0.0541559  
H606     H      0.592460000000     0.233310000000     0.124330000000     0.0493364  
H607     H      0.607970000000     0.211170000000     0.049600000000     0.0541485  
H608     H      0.591880000000     0.195790000000     0.090620000000     0.0497497  
H609     H      0.469370000000     0.097240000000     0.315670000000     0.0505616  
H610     H      0.510390000000     0.130390000000     0.323850000000     0.050498   
H611     H      0.513010000000     0.140050000000     0.368840000000     0.053762   
H612     H      0.475450000000     0.064030000000     0.323410000000     0.0539277  
H613     H      0.947930000000     0.087240000000     0.355820000000     0.0540937  
H614     H      0.978390000000     0.073930000000     0.368300000000     0.0496554  
H615     H      0.540590000000     0.116680000000     0.336480000000     0.054198   
H616     H      0.018830000000     0.106740000000     0.376460000000     0.0496973  
H617     H      0.895520000000     0.107730000000     0.001330000000     0.0502836  
H618     H      0.850580000000     0.132620000000     0.989150000000     0.0504513  
H619     H      0.844050000000     0.131550000000     0.443300000000     0.0540742  
H620     H      0.894470000000     0.073100000000     0.001190000000     0.0536817  
H621     H      0.916940000000     0.091720000000     0.462910000000     0.0539002  
H622     H      0.888220000000     0.072340000000     0.455380000000     0.049839   
H623     H      0.821750000000     0.113300000000     0.981740000000     0.0543087  
H624     H      0.843190000000     0.096880000000     0.443410000000     0.0501528  
H625     H      0.835160000000     0.220810000000     0.366100000000     0.0503172  
H626     H      0.852240000000     0.194730000000     0.325680000000     0.0501578  
H627     H      0.870510000000     0.224880000000     0.294820000000     0.0544614  
H628     H      0.859990000000     0.231210000000     0.388510000000     0.0541314  
H629     H      0.843690000000     0.266820000000     0.360590000000     0.0534305  
H630     H      0.879080000000     0.261210000000     0.357750000000     0.049899   
H631     H      0.887680000000     0.189500000000     0.322920000000     0.0537161  
H632     H      0.895730000000     0.235380000000     0.316760000000     0.0499769  
H633     H      0.955340000000     0.235240000000     0.984600000000     0.0496498  
H634     H      0.976190000000     0.256790000000     0.443470000000     0.0495644  
H635     H      0.524920000000     0.254500000000     0.445040000000     0.054067   
H636     H      0.954460000000     0.200620000000     0.985870000000     0.0536486  
H637     H      0.491140000000     0.220050000000     0.012100000000     0.0541438  
H638     H      0.503120000000     0.198350000000     0.988110000000     0.0503481  
H639     H      0.988040000000     0.235620000000     0.418960000000     0.0540762  
H640     H      0.524030000000     0.219890000000     0.446130000000     0.0506576  
H641     H      0.530970000000     0.976500000000     0.692170000000     0.0499229  
H642     H      0.525810000000     0.442890000000     0.729350000000     0.0497699  
H643     H      0.507360000000     0.464200000000     0.766630000000     0.053996   
H644     H      0.001470000000     0.984950000000     0.674530000000     0.0542517  
H645     H      0.515010000000     0.018920000000     0.705550000000     0.0541446  
H646     H      0.982130000000     0.006320000000     0.711560000000     0.0508185  
H647     H      0.992970000000     0.430280000000     0.735570000000     0.0538985  
H648     H      0.977260000000     0.472430000000     0.749800000000     0.0505711  
H649     H      0.842350000000     0.357320000000     0.696610000000     0.0502912  
H650     H      0.879950000000     0.320760000000     0.699920000000     0.0504376  
H651     H      0.921720000000     0.339800000000     0.714950000000     0.0544564  
H652     H      0.826800000000     0.367480000000     0.725640000000     0.0544429  
H653     H      0.861050000000     0.398720000000     0.709700000000     0.0538209  
H654     H      0.868680000000     0.386290000000     0.740650000000     0.05       
H655     H      0.887470000000     0.308570000000     0.730980000000     0.0541262  
H656     H      0.906030000000     0.350060000000     0.743890000000     0.0498674  
H657     H      0.588360000000     0.107860000000     0.700780000000     0.0504682  
H658     H      0.628510000000     0.073280000000     0.701580000000     0.0506043  
H659     H      0.670030000000     0.094990000000     0.713250000000     0.054333   
H660     H      0.574820000000     0.117450000000     0.730870000000     0.0542834  
H661     H      0.605620000000     0.150330000000     0.712080000000     0.0536615  
H662     H      0.616590000000     0.138730000000     0.742460000000     0.0497249  
H663     H      0.639230000000     0.062140000000     0.732190000000     0.0537664  
H664     H      0.656160000000     0.104760000000     0.743150000000     0.0495305  
H665     H      0.719250000000     0.261370000000     0.713010000000     0.0504775  
H666     H      0.721240000000     0.223720000000     0.747330000000     0.0503757  
H667     H      0.739310000000     0.184400000000     0.728160000000     0.0539103  
H668     H      0.750200000000     0.277040000000     0.705030000000     0.0540814  
H669     H      0.735130000000     0.245040000000     0.672350000000     0.0542545  
H670     H      0.767400000000     0.237690000000     0.685580000000     0.0498682  
H671     H      0.753360000000     0.216400000000     0.760910000000     0.0539131  
H672     H      0.769880000000     0.200710000000     0.720090000000     0.049961   
H673     H      0.900080000000     0.008670000000     0.603460000000     0.0503192  
H674     H      0.900080000000     0.474040000000     0.566020000000     0.0497059  
H675     H      0.888270000000     0.432110000000     0.583300000000     0.0533078  
H676     H      0.868210000000     0.021120000000     0.613380000000     0.0542166  
H677     H      0.886780000000     0.988460000000     0.643260000000     0.0543838  
H678     H      0.855070000000     0.979090000000     0.630100000000     0.050406   
H679     H      0.868090000000     0.464620000000     0.553520000000     0.053489   
H680     H      0.855940000000     0.443590000000     0.593050000000     0.0499801  
H681     H      0.778150000000     0.111820000000     0.620440000000     0.0503548  
H682     H      0.741750000000     0.074550000000     0.622450000000     0.0505484  
H683     H      0.699160000000     0.090650000000     0.606080000000     0.0543619  
H684     H      0.793270000000     0.118430000000     0.590240000000     0.0543635  
H685     H      0.758570000000     0.150910000000     0.602210000000     0.053938   
H686     H      0.750600000000     0.134100000000     0.573400000000     0.0502278  
H687     H      0.733840000000     0.058150000000     0.593410000000     0.0540923  
H688     H      0.713960000000     0.097250000000     0.575740000000     0.0498164  
H689     H      0.643270000000     0.016600000000     0.855650000000     0.0495806  
H690     H      0.651610000000     0.983220000000     0.817930000000     0.0498712  
H691     H      0.642460000000     0.439450000000     0.832180000000     0.0536685  
H692     H      0.609100000000     0.024370000000     0.862990000000     0.0535266  
H693     H      0.630130000000     0.493000000000     0.893380000000     0.0537925  
H694     H      0.600550000000     0.480910000000     0.878120000000     0.0502665  
H695     H      0.622600000000     0.971030000000     0.801780000000     0.0542337  
H696     H      0.608330000000     0.447500000000     0.839390000000     0.0504512  
H697     H      0.736660000000     0.327090000000     0.870900000000     0.0498692  
H698     H      0.776980000000     0.360760000000     0.873080000000     0.0497469  
H699     H      0.791490000000     0.371180000000     0.830330000000     0.0540661  
H700     H      0.704040000000     0.339640000000     0.863530000000     0.0539067  
H701     H      0.725790000000     0.317490000000     0.826890000000     0.054024   
H702     H      0.718130000000     0.350740000000     0.820670000000     0.0504884  
H703     H      0.769240000000     0.393950000000     0.866620000000     0.0538353  
H704     H      0.759220000000     0.384240000000     0.822550000000     0.0503003  
H705     H      0.735670000000     0.015780000000     0.463720000000     0.049619   
H706     H      0.720880000000     0.486390000000     0.502940000000     0.0499778  
H707     H      0.727820000000     0.441060000000     0.992750000000     0.0541607  
H708     H      0.770940000000     0.020660000000     0.459180000000     0.0534894  
H709     H      0.750950000000     0.988310000000     0.929310000000     0.0539342  
H710     H      0.777530000000     0.975480000000     0.948460000000     0.0501715  
H711     H      0.747120000000     0.473580000000     0.522540000000     0.05426    
H712     H      0.763050000000     0.446180000000     0.988210000000     0.0502935  
H713     H      0.966180000000     0.344660000000     0.564630000000     0.0493771  
H714     H      0.504460000000     0.379770000000     0.563320000000     0.0493393  
H715     H      0.518480000000     0.391050000000     0.606160000000     0.0540348  
H716     H      0.975770000000     0.311890000000     0.570990000000     0.0537439  
H717     H      0.955450000000     0.334400000000     0.608450000000     0.0541651  
H718     H      0.988800000000     0.322820000000     0.614150000000     0.0504613  
H719     H      0.538270000000     0.369130000000     0.568380000000     0.0539159  
H720     H      0.528430000000     0.358370000000     0.612450000000     0.0507681  
H721     H      0.605250000000     0.384810000000     0.481940000000     0.0505197  
H722     H      0.648350000000     0.358000000000     0.496260000000     0.050576   
H723     H      0.642190000000     0.312460000000     0.485950000000     0.0539996  
H724     H      0.601980000000     0.391920000000     0.948760000000     0.0537483  
H725     H      0.572490000000     0.355640000000     0.463030000000     0.0541977  
H726     H      0.595810000000     0.346350000000     0.938760000000     0.0500274  
H727     H      0.671600000000     0.348790000000     0.971930000000     0.0545501  
H728     H      0.638670000000     0.319880000000     0.952860000000     0.0502494  
H729     H      0.639550000000     0.258930000000     0.596950000000     0.0508106  
H730     H      0.639730000000     0.219940000000     0.563070000000     0.0508942  
H731     H      0.623140000000     0.180470000000     0.583050000000     0.0539831  
H732     H      0.607580000000     0.272940000000     0.604220000000     0.0536398  
H733     H      0.624220000000     0.242330000000     0.637620000000     0.0541565  
H734     H      0.592460000000     0.233310000000     0.624330000000     0.0493368  
H735     H      0.607970000000     0.211170000000     0.549600000000     0.0541596  
H736     H      0.591880000000     0.195790000000     0.590620000000     0.0497534  
H737     H      0.469370000000     0.097240000000     0.815670000000     0.0505613  
H738     H      0.510390000000     0.130390000000     0.823850000000     0.0505024  
H739     H      0.513010000000     0.140050000000     0.868840000000     0.0537645  
H740     H      0.475450000000     0.064030000000     0.823410000000     0.0539281  
H741     H      0.947930000000     0.087240000000     0.855820000000     0.0540948  
H742     H      0.978390000000     0.073930000000     0.868300000000     0.0496584  
H743     H      0.540590000000     0.116680000000     0.836480000000     0.0542008  
H744     H      0.018830000000     0.106740000000     0.876460000000     0.0497015  
H745     H      0.895520000000     0.107730000000     0.501330000000     0.050386   
H746     H      0.850580000000     0.132620000000     0.489150000000     0.050441   
H747     H      0.844050000000     0.131550000000     0.943300000000     0.0540798  
H748     H      0.894470000000     0.073100000000     0.501190000000     0.0537744  
H749     H      0.916940000000     0.091720000000     0.962910000000     0.0539274  
H750     H      0.888220000000     0.072340000000     0.955380000000     0.0498623  
H751     H      0.821750000000     0.113300000000     0.481740000000     0.0542934  
H752     H      0.843190000000     0.096880000000     0.943410000000     0.0501613  
H753     H      0.835160000000     0.220810000000     0.866100000000     0.0503196  
H754     H      0.852240000000     0.194730000000     0.825680000000     0.0501577  
H755     H      0.870510000000     0.224880000000     0.794820000000     0.0544606  
H756     H      0.859990000000     0.231210000000     0.888510000000     0.0541355  
H757     H      0.843690000000     0.266820000000     0.860590000000     0.0534331  
H758     H      0.879080000000     0.261210000000     0.857750000000     0.0499007  
H759     H      0.887680000000     0.189500000000     0.822920000000     0.0537158  
H760     H      0.895730000000     0.235380000000     0.816760000000     0.0499767  
H761     H      0.955340000000     0.235240000000     0.484600000000     0.0496197  
H762     H      0.976190000000     0.256790000000     0.943470000000     0.0495661  
H763     H      0.524920000000     0.254500000000     0.945040000000     0.0540841  
H764     H      0.954460000000     0.200620000000     0.485870000000     0.05362    
H765     H      0.491140000000     0.220050000000     0.512100000000     0.0542297  
H766     H      0.503120000000     0.198350000000     0.488110000000     0.0503654  
H767     H      0.988040000000     0.235620000000     0.918960000000     0.0540739  
H768     H      0.524030000000     0.219890000000     0.946130000000     0.050676   
H769     H      0.530970000000     0.476500000000     0.192170000000     0.049955   
H770     H      0.525810000000     0.942890000000     0.229350000000     0.0497642  
H771     H      0.507360000000     0.964200000000     0.266630000000     0.0540258  
H772     H      0.001470000000     0.484950000000     0.174530000000     0.0542818  
H773     H      0.515010000000     0.518920000000     0.205550000000     0.0541227  
H774     H      0.982130000000     0.506320000000     0.211560000000     0.0508128  
H775     H      0.992970000000     0.930270000000     0.235570000000     0.0538842  
H776     H      0.977260000000     0.972430000000     0.249800000000     0.0506073  
H777     H      0.842350000000     0.857320000000     0.196610000000     0.0502752  
H778     H      0.879950000000     0.820760000000     0.199920000000     0.05041    
H779     H      0.921720000000     0.839800000000     0.214950000000     0.0544611  
H780     H      0.826800000000     0.867480000000     0.225640000000     0.0544346  
H781     H      0.861050000000     0.898720000000     0.209700000000     0.0538326  
H782     H      0.868680000000     0.886290000000     0.240650000000     0.050013   
H783     H      0.887470000000     0.808570000000     0.230980000000     0.0540965  
H784     H      0.906030000000     0.850060000000     0.243890000000     0.0498743  
H785     H      0.588360000000     0.607860000000     0.200780000000     0.0504712  
H786     H      0.628510000000     0.573280000000     0.201580000000     0.0505829  
H787     H      0.670030000000     0.594990000000     0.213250000000     0.054349   
H788     H      0.574820000000     0.617450000000     0.230870000000     0.0542845  
H789     H      0.605620000000     0.650330000000     0.212080000000     0.0536618  
H790     H      0.616590000000     0.638730000000     0.242460000000     0.0497257  
H791     H      0.639230000000     0.562140000000     0.232190000000     0.0537451  
H792     H      0.656160000000     0.604760000000     0.243150000000     0.0495428  
H793     H      0.719250000000     0.761380000000     0.213010000000     0.0504746  
H794     H      0.721240000000     0.723720000000     0.247330000000     0.0503743  
H795     H      0.739310000000     0.684400000000     0.228160000000     0.0539129  
H796     H      0.750200000000     0.777040000000     0.205030000000     0.0540812  
H797     H      0.735130000000     0.745040000000     0.172350000000     0.0542222  
H798     H      0.767400000000     0.737690000000     0.185580000000     0.0498367  
H799     H      0.753360000000     0.716400000000     0.260910000000     0.0539159  
H800     H      0.769880000000     0.700710000000     0.220090000000     0.0499629  
H801     H      0.900080000000     0.508670000000     0.103450000000     0.0503489  
H802     H      0.900080000000     0.974040000000     0.066020000000     0.0497551  
H803     H      0.888270000000     0.932110000000     0.083300000000     0.0532941  
H804     H      0.868210000000     0.521120000000     0.113380000000     0.0542307  
H805     H      0.886780000000     0.488460000000     0.143260000000     0.0543698  
H806     H      0.855070000000     0.479090000000     0.130100000000     0.0503951  
H807     H      0.868090000000     0.964620000000     0.053520000000     0.0535388  
H808     H      0.855940000000     0.943590000000     0.093050000000     0.0499752  
H809     H      0.778150000000     0.611820000000     0.120440000000     0.0503793  
H810     H      0.741750000000     0.574550000000     0.122450000000     0.05056    
H811     H      0.699160000000     0.590650000000     0.106080000000     0.0543661  
H812     H      0.793270000000     0.618430000000     0.090240000000     0.0543735  
H813     H      0.758570000000     0.650910000000     0.102210000000     0.0539294  
H814     H      0.750600000000     0.634100000000     0.073400000000     0.0502146  
H815     H      0.733840000000     0.558150000000     0.093410000000     0.0541037  
H816     H      0.713960000000     0.597250000000     0.075740000000     0.0498135  
H817     H      0.643270000000     0.516600000000     0.355650000000     0.0495753  
H818     H      0.651610000000     0.483220000000     0.317930000000     0.0498416  
H819     H      0.642460000000     0.939450000000     0.332180000000     0.0536807  
H820     H      0.609100000000     0.524370000000     0.362990000000     0.0535142  
H821     H      0.630130000000     0.993000000000     0.393380000000     0.0537822  
H822     H      0.600550000000     0.980910000000     0.378120000000     0.0502492  
H823     H      0.622600000000     0.471030000000     0.301780000000     0.0542089  
H824     H      0.608330000000     0.947500000000     0.339400000000     0.0504729  
H825     H      0.736660000000     0.827090000000     0.370900000000     0.049868   
H826     H      0.776980000000     0.860760000000     0.373080000000     0.0497454  
H827     H      0.791490000000     0.871180000000     0.330330000000     0.0540784  
H828     H      0.704040000000     0.839640000000     0.363530000000     0.053908   
H829     H      0.725790000000     0.817490000000     0.326890000000     0.0540199  
H830     H      0.718130000000     0.850750000000     0.320670000000     0.0504837  
H831     H      0.769240000000     0.893950000000     0.366620000000     0.0538397  
H832     H      0.759220000000     0.884240000000     0.322550000000     0.0503078  
H833     H      0.735670000000     0.515780000000     0.963720000000     0.0496375  
H834     H      0.720880000000     0.986380000000     0.002940000000     0.0500117  
H835     H      0.727820000000     0.941060000000     0.492750000000     0.0541586  
H836     H      0.770940000000     0.520660000000     0.959180000000     0.053489   
H837     H      0.750950000000     0.488310000000     0.429300000000     0.0538893  
H838     H      0.777530000000     0.475480000000     0.448460000000     0.0501351  
H839     H      0.747120000000     0.973580000000     0.022540000000     0.0543078  
H840     H      0.763050000000     0.946180000000     0.488210000000     0.0502984  
H841     H      0.966180000000     0.844660000000     0.064630000000     0.0493682  
H842     H      0.504460000000     0.879770000000     0.063320000000     0.0493272  
H843     H      0.518480000000     0.891050000000     0.106160000000     0.0540393  
H844     H      0.975770000000     0.811890000000     0.070990000000     0.053734   
H845     H      0.955450000000     0.834400000000     0.108450000000     0.0541706  
H846     H      0.988800000000     0.822820000000     0.114140000000     0.0504723  
H847     H      0.538270000000     0.869140000000     0.068380000000     0.0538932  
H848     H      0.528430000000     0.858370000000     0.112450000000     0.0507721  
H849     H      0.605250000000     0.884810000000     0.981950000000     0.0505207  
H850     H      0.648350000000     0.858000000000     0.996260000000     0.0505958  
H851     H      0.642190000000     0.812460000000     0.985950000000     0.0540207  
H852     H      0.601980000000     0.891920000000     0.448760000000     0.0537575  
H853     H      0.572490000000     0.855640000000     0.963030000000     0.0542141  
H854     H      0.595810000000     0.846360000000     0.438760000000     0.050025   
H855     H      0.671600000000     0.848790000000     0.471930000000     0.0545416  
H856     H      0.638670000000     0.819880000000     0.452860000000     0.0502466  
H857     H      0.639550000000     0.758930000000     0.096950000000     0.0508095  
H858     H      0.639730000000     0.719930000000     0.063070000000     0.0508823  
H859     H      0.623140000000     0.680470000000     0.083050000000     0.0539817  
H860     H      0.607580000000     0.772940000000     0.104220000000     0.0536383  
H861     H      0.624220000000     0.742330000000     0.137620000000     0.0541604  
H862     H      0.592460000000     0.733310000000     0.124330000000     0.0493346  
H863     H      0.607970000000     0.711170000000     0.049600000000     0.0541485  
H864     H      0.591880000000     0.695790000000     0.090620000000     0.0497496  
H865     H      0.469370000000     0.597240000000     0.315670000000     0.0505654  
H866     H      0.510390000000     0.630390000000     0.323850000000     0.0504975  
H867     H      0.513010000000     0.640050000000     0.368840000000     0.0537631  
H868     H      0.475450000000     0.564030000000     0.323410000000     0.0539399  
H869     H      0.947930000000     0.587240000000     0.355820000000     0.0541027  
H870     H      0.978390000000     0.573930000000     0.368300000000     0.0496678  
H871     H      0.540590000000     0.616680000000     0.336480000000     0.0541999  
H872     H      0.018830000000     0.606740000000     0.376460000000     0.0497039  
H873     H      0.895520000000     0.607730000000     0.001330000000     0.0502811  
H874     H      0.850580000000     0.632620000000     0.989150000000     0.0504482  
H875     H      0.844050000000     0.631550000000     0.443300000000     0.0540772  
H876     H      0.894470000000     0.573100000000     0.001190000000     0.0536875  
H877     H      0.916940000000     0.591720000000     0.462910000000     0.0539089  
H878     H      0.888220000000     0.572340000000     0.455380000000     0.0498549  
H879     H      0.821750000000     0.613300000000     0.981740000000     0.0543073  
H880     H      0.843190000000     0.596880000000     0.443410000000     0.0501631  
H881     H      0.835160000000     0.720810000000     0.366100000000     0.0503203  
H882     H      0.852240000000     0.694730000000     0.325680000000     0.0501603  
H883     H      0.870510000000     0.724880000000     0.294820000000     0.0544623  
H884     H      0.859990000000     0.731210000000     0.388510000000     0.0541277  
H885     H      0.843690000000     0.766820000000     0.360590000000     0.0534302  
H886     H      0.879080000000     0.761210000000     0.357750000000     0.0498963  
H887     H      0.887680000000     0.689500000000     0.322920000000     0.0537137  
H888     H      0.895730000000     0.735380000000     0.316760000000     0.049975   
H889     H      0.955340000000     0.735240000000     0.984600000000     0.049648   
H890     H      0.976190000000     0.756790000000     0.443470000000     0.0495269  
H891     H      0.524920000000     0.754500000000     0.445040000000     0.0540772  
H892     H      0.954460000000     0.700620000000     0.985870000000     0.0536484  
H893     H      0.491140000000     0.720050000000     0.012100000000     0.0541452  
H894     H      0.503120000000     0.698350000000     0.988110000000     0.0503505  
H895     H      0.988040000000     0.735620000000     0.418960000000     0.0540418  
H896     H      0.524030000000     0.719890000000     0.446130000000     0.0506678  
H897     H      0.530970000000     0.476500000000     0.692170000000     0.0499237  
H898     H      0.525810000000     0.942890000000     0.729350000000     0.0497627  
H899     H      0.507360000000     0.964200000000     0.766630000000     0.0540265  
H900     H      0.001470000000     0.484950000000     0.674530000000     0.0542468  
H901     H      0.515010000000     0.518920000000     0.705550000000     0.0541322  
H902     H      0.982130000000     0.506320000000     0.711560000000     0.0508209  
H903     H      0.992970000000     0.930270000000     0.735570000000     0.0538834  
H904     H      0.977260000000     0.972430000000     0.749800000000     0.0506076  
H905     H      0.842350000000     0.857320000000     0.696610000000     0.0502764  
H906     H      0.879950000000     0.820760000000     0.699920000000     0.0504109  
H907     H      0.921720000000     0.839800000000     0.714950000000     0.0544609  
H908     H      0.826800000000     0.867480000000     0.725640000000     0.0544347  
H909     H      0.861050000000     0.898720000000     0.709700000000     0.0538327  
H910     H      0.868680000000     0.886290000000     0.740650000000     0.0500128  
H911     H      0.887470000000     0.808570000000     0.730980000000     0.0540964  
H912     H      0.906030000000     0.850060000000     0.743890000000     0.0498741  
H913     H      0.588360000000     0.607860000000     0.700780000000     0.0504722  
H914     H      0.628510000000     0.573280000000     0.701580000000     0.0505839  
H915     H      0.670030000000     0.594990000000     0.713250000000     0.0543491  
H916     H      0.574820000000     0.617450000000     0.730870000000     0.0542846  
H917     H      0.605620000000     0.650330000000     0.712080000000     0.0536619  
H918     H      0.616590000000     0.638730000000     0.742460000000     0.0497257  
H919     H      0.639230000000     0.562140000000     0.732190000000     0.0537455  
H920     H      0.656160000000     0.604760000000     0.743150000000     0.0495429  
H921     H      0.719250000000     0.761380000000     0.713010000000     0.0504774  
H922     H      0.721240000000     0.723720000000     0.747330000000     0.0503776  
H923     H      0.739310000000     0.684400000000     0.728160000000     0.053912   
H924     H      0.750200000000     0.777040000000     0.705030000000     0.0540857  
H925     H      0.735130000000     0.745040000000     0.672350000000     0.0542239  
H926     H      0.767400000000     0.737690000000     0.685580000000     0.0498378  
H927     H      0.753360000000     0.716400000000     0.760910000000     0.0539145  
H928     H      0.769880000000     0.700710000000     0.720090000000     0.049961   
H929     H      0.900080000000     0.508670000000     0.603460000000     0.0503187  
H930     H      0.900080000000     0.974040000000     0.566020000000     0.0497638  
H931     H      0.888270000000     0.932110000000     0.583300000000     0.053301   
H932     H      0.868210000000     0.521120000000     0.613380000000     0.0541989  
H933     H      0.886780000000     0.488460000000     0.643260000000     0.0543789  
H934     H      0.855070000000     0.479090000000     0.630100000000     0.0504054  
H935     H      0.868090000000     0.964620000000     0.553520000000     0.0535487  
H936     H      0.855940000000     0.943590000000     0.593050000000     0.04998    
H937     H      0.778150000000     0.611820000000     0.620440000000     0.0503593  
H938     H      0.741750000000     0.574550000000     0.622450000000     0.0505595  
H939     H      0.699160000000     0.590650000000     0.606080000000     0.0543703  
H940     H      0.793270000000     0.618430000000     0.590240000000     0.0543645  
H941     H      0.758570000000     0.650910000000     0.602210000000     0.0539385  
H942     H      0.750600000000     0.634100000000     0.573400000000     0.0502286  
H943     H      0.733840000000     0.558150000000     0.593410000000     0.0541074  
H944     H      0.713960000000     0.597250000000     0.575740000000     0.0498225  
H945     H      0.643270000000     0.516600000000     0.855650000000     0.0495757  
H946     H      0.651610000000     0.483220000000     0.817930000000     0.0498415  
H947     H      0.642460000000     0.939450000000     0.832180000000     0.0536784  
H948     H      0.609100000000     0.524370000000     0.862990000000     0.0535078  
H949     H      0.630130000000     0.993000000000     0.893380000000     0.0537871  
H950     H      0.600550000000     0.980910000000     0.878120000000     0.0502528  
H951     H      0.622600000000     0.471030000000     0.801780000000     0.0542064  
H952     H      0.608330000000     0.947500000000     0.839390000000     0.050466   
H953     H      0.736660000000     0.827090000000     0.870900000000     0.0498711  
H954     H      0.776980000000     0.860760000000     0.873080000000     0.0497489  
H955     H      0.791490000000     0.871180000000     0.830330000000     0.0540792  
H956     H      0.704040000000     0.839640000000     0.863530000000     0.0539093  
H957     H      0.725790000000     0.817490000000     0.826890000000     0.0540208  
H958     H      0.718130000000     0.850750000000     0.820670000000     0.0504834  
H959     H      0.769240000000     0.893950000000     0.866620000000     0.0538417  
H960     H      0.759220000000     0.884240000000     0.822550000000     0.0503076  
H961     H      0.735670000000     0.515780000000     0.463720000000     0.0496234  
H962     H      0.720880000000     0.986380000000     0.502940000000     0.0500141  
H963     H      0.727820000000     0.941060000000     0.992750000000     0.0541623  
H964     H      0.770940000000     0.520660000000     0.459180000000     0.0534812  
H965     H      0.750950000000     0.488310000000     0.929310000000     0.0539093  
H966     H      0.777530000000     0.475480000000     0.948460000000     0.0501551  
H967     H      0.747120000000     0.973580000000     0.522540000000     0.0542956  
H968     H      0.763050000000     0.946180000000     0.988210000000     0.0503017  
H969     H      0.966180000000     0.844660000000     0.564630000000     0.0493791  
H970     H      0.504460000000     0.879770000000     0.563320000000     0.0493378  
H971     H      0.518480000000     0.891050000000     0.606160000000     0.0540424  
H972     H      0.975770000000     0.811890000000     0.570990000000     0.0537438  
H973     H      0.955450000000     0.834400000000     0.608450000000     0.0541649  
H974     H      0.988800000000     0.822820000000     0.614150000000     0.0504605  
H975     H      0.538270000000     0.869140000000     0.568380000000     0.0539029  
H976     H      0.528430000000     0.858370000000     0.612450000000     0.0507725  
H977     H      0.605250000000     0.884810000000     0.481940000000     0.0505259  
H978     H      0.648350000000     0.858000000000     0.496260000000     0.0505791  
H979     H      0.642190000000     0.812460000000     0.485950000000     0.0540001  
H980     H      0.601980000000     0.891920000000     0.948760000000     0.0537522  
H981     H      0.572490000000     0.855640000000     0.463030000000     0.0542033  
H982     H      0.595810000000     0.846360000000     0.938760000000     0.0500296  
H983     H      0.671600000000     0.848790000000     0.971930000000     0.054551   
H984     H      0.638670000000     0.819880000000     0.952860000000     0.0502504  
H985     H      0.639550000000     0.758930000000     0.596950000000     0.0508146  
H986     H      0.639730000000     0.719930000000     0.563070000000     0.0508915  
H987     H      0.623140000000     0.680470000000     0.583050000000     0.0539876  
H988     H      0.607580000000     0.772940000000     0.604220000000     0.0536407  
H989     H      0.624220000000     0.742330000000     0.637620000000     0.0541609  
H990     H      0.592460000000     0.733310000000     0.624330000000     0.049335   
H991     H      0.607970000000     0.711170000000     0.549600000000     0.0541596  
H992     H      0.591880000000     0.695790000000     0.590620000000     0.0497533  
H993     H      0.469370000000     0.597240000000     0.815670000000     0.0505651  
H994     H      0.510390000000     0.630390000000     0.823850000000     0.0505019  
H995     H      0.513010000000     0.640050000000     0.868840000000     0.0537656  
H996     H      0.475450000000     0.564030000000     0.823410000000     0.0539403  
H997     H      0.947930000000     0.587240000000     0.855820000000     0.0541038  
H998     H      0.978390000000     0.573930000000     0.868300000000     0.0496708  
H999     H      0.540590000000     0.616680000000     0.836480000000     0.0542028  
H1000    H      0.018830000000     0.606740000000     0.876460000000     0.0497081  
H1001    H      0.895520000000     0.607730000000     0.501330000000     0.0503836  
H1002    H      0.850580000000     0.632620000000     0.489150000000     0.0504379  
H1003    H      0.844050000000     0.631550000000     0.943300000000     0.0540828  
H1004    H      0.894470000000     0.573100000000     0.501190000000     0.0537802  
H1005    H      0.916940000000     0.591720000000     0.962910000000     0.0539361  
H1006    H      0.888220000000     0.572340000000     0.955380000000     0.0498782  
H1007    H      0.821750000000     0.613300000000     0.481740000000     0.054292   
H1008    H      0.843190000000     0.596880000000     0.943410000000     0.0501716  
H1009    H      0.835160000000     0.720810000000     0.866100000000     0.0503227  
H1010    H      0.852240000000     0.694730000000     0.825680000000     0.0501603  
H1011    H      0.870510000000     0.724880000000     0.794820000000     0.0544615  
H1012    H      0.859990000000     0.731210000000     0.888510000000     0.0541318  
H1013    H      0.843690000000     0.766820000000     0.860590000000     0.0534327  
H1014    H      0.879080000000     0.761210000000     0.857750000000     0.0498979  
H1015    H      0.887680000000     0.689500000000     0.822920000000     0.0537133  
H1016    H      0.895730000000     0.735380000000     0.816760000000     0.0499748  
H1017    H      0.955340000000     0.735240000000     0.484600000000     0.0496179  
H1018    H      0.976190000000     0.756790000000     0.943470000000     0.0495285  
H1019    H      0.524920000000     0.754500000000     0.945040000000     0.0540943  
H1020    H      0.954460000000     0.700620000000     0.485870000000     0.0536198  
H1021    H      0.491140000000     0.720050000000     0.512100000000     0.0542311  
H1022    H      0.503120000000     0.698350000000     0.488110000000     0.0503678  
H1023    H      0.988040000000     0.735620000000     0.918960000000     0.0540396  
H1024    H      0.524030000000     0.719890000000     0.946130000000     0.0506862  
N1       N      0.011070000000     0.993800000000     0.238060000000    -0.151251   
N2       N      0.496570000000     0.455680000000     0.203290000000    -0.151365   
N3       N      0.393400000000     0.371140000000     0.211780000000    -0.151501   
N4       N      0.355000000000     0.336010000000     0.228570000000    -0.151387   
N5       N      0.139630000000     0.124620000000     0.211890000000    -0.151677   
N6       N      0.104960000000     0.087550000000     0.231730000000    -0.15156    
N7       N      0.236670000000     0.212890000000     0.198330000000    -0.151527   
N8       N      0.252060000000     0.248650000000     0.234990000000    -0.15188    
N9       N      0.387730000000     0.458060000000     0.115280000000    -0.151242   
N10      N      0.367710000000     0.994960000000     0.081500000000    -0.151289   
N11      N      0.226840000000     0.122670000000     0.104570000000    -0.151554   
N12      N      0.265610000000     0.086370000000     0.091500000000    -0.151519   
N13      N      0.136250000000     0.463770000000     0.364850000000    -0.151109   
N14      N      0.115380000000     0.999880000000     0.330480000000    -0.150912   
N15      N      0.259420000000     0.343650000000     0.325780000000    -0.151081   
N16      N      0.235720000000     0.367690000000     0.367630000000    -0.151384   
N17      N      0.239190000000     0.462280000000     0.459200000000    -0.151061   
N18      N      0.259430000000     0.999400000000     0.992640000000    -0.150911   
N19      N      0.486510000000     0.363320000000     0.110340000000    -0.151176   
N20      N      0.008000000000     0.339390000000     0.067420000000    -0.151464   
N21      N      0.105690000000     0.331840000000     0.974990000000    -0.151364   
N22      N      0.138440000000     0.372750000000     0.460140000000    -0.151185   
N23      N      0.124430000000     0.209650000000     0.112260000000    -0.151273   
N24      N      0.107970000000     0.244150000000     0.074650000000    -0.151557   
N25      N      0.479190000000     0.114490000000     0.364840000000    -0.151183   
N26      N      0.009160000000     0.089800000000     0.327020000000    -0.150913   
N27      N      0.381600000000     0.112290000000     0.450650000000    -0.151531   
N28      N      0.357020000000     0.092640000000     0.994000000000    -0.151312   
N29      N      0.356870000000     0.248310000000     0.326120000000    -0.151143   
N30      N      0.374210000000     0.207980000000     0.357290000000    -0.151422   
N31      N      0.010810000000     0.237540000000     0.979980000000    -0.151087   
N32      N      0.468890000000     0.217400000000     0.450980000000    -0.151477   
N33      N      0.011070000000     0.993800000000     0.738060000000    -0.151247   
N34      N      0.496570000000     0.455680000000     0.703290000000    -0.151384   
N35      N      0.393400000000     0.371140000000     0.711780000000    -0.151501   
N36      N      0.355000000000     0.336010000000     0.728570000000    -0.151387   
N37      N      0.139630000000     0.124620000000     0.711890000000    -0.151677   
N38      N      0.104960000000     0.087550000000     0.731730000000    -0.15156    
N39      N      0.236670000000     0.212890000000     0.698330000000    -0.151528   
N40      N      0.252060000000     0.248650000000     0.734990000000    -0.151842   
N41      N      0.387730000000     0.458060000000     0.615280000000    -0.151236   
N42      N      0.367710000000     0.994960000000     0.581500000000    -0.1513     
N43      N      0.226840000000     0.122670000000     0.604570000000    -0.15155    
N44      N      0.265610000000     0.086370000000     0.591500000000    -0.151527   
N45      N      0.136250000000     0.463770000000     0.864850000000    -0.151106   
N46      N      0.115380000000     0.999880000000     0.830480000000    -0.150931   
N47      N      0.259420000000     0.343650000000     0.825780000000    -0.151081   
N48      N      0.235720000000     0.367690000000     0.867630000000    -0.151383   
N49      N      0.239190000000     0.462280000000     0.959200000000    -0.151058   
N50      N      0.259430000000     0.999400000000     0.492640000000    -0.151009   
N51      N      0.486510000000     0.363320000000     0.610340000000    -0.151181   
N52      N      0.008000000000     0.339390000000     0.567420000000    -0.151459   
N53      N      0.105690000000     0.331840000000     0.474990000000    -0.151356   
N54      N      0.138440000000     0.372750000000     0.960140000000    -0.151189   
N55      N      0.124430000000     0.209650000000     0.612260000000    -0.151272   
N56      N      0.107970000000     0.244150000000     0.574650000000    -0.151554   
N57      N      0.479190000000     0.114490000000     0.864840000000    -0.151181   
N58      N      0.009160000000     0.089800000000     0.827020000000    -0.150911   
N59      N      0.381600000000     0.112290000000     0.950650000000    -0.151521   
N60      N      0.357020000000     0.092640000000     0.494010000000    -0.151385   
N61      N      0.356870000000     0.248310000000     0.826120000000    -0.151144   
N62      N      0.374210000000     0.207980000000     0.857290000000    -0.151421   
N63      N      0.010810000000     0.237540000000     0.479970000000    -0.15102    
N64      N      0.468890000000     0.217400000000     0.950980000000    -0.151472   
N65      N      0.011070000000     0.493800000000     0.238060000000    -0.151346   
N66      N      0.496570000000     0.955680000000     0.203290000000    -0.15138    
N67      N      0.393400000000     0.871140000000     0.211780000000    -0.151495   
N68      N      0.355000000000     0.836020000000     0.228570000000    -0.151364   
N69      N      0.139630000000     0.624620000000     0.211890000000    -0.151672   
N70      N      0.104960000000     0.587550000000     0.231730000000    -0.151575   
N71      N      0.236670000000     0.712890000000     0.198330000000    -0.151542   
N72      N      0.252060000000     0.748650000000     0.234990000000    -0.151876   
N73      N      0.387730000000     0.958060000000     0.115280000000    -0.151255   
N74      N      0.367710000000     0.494960000000     0.081500000000    -0.15143    
N75      N      0.226840000000     0.622670000000     0.104570000000    -0.151553   
N76      N      0.265610000000     0.586370000000     0.091500000000    -0.151516   
N77      N      0.136250000000     0.963780000000     0.364850000000    -0.151072   
N78      N      0.115380000000     0.499880000000     0.330480000000    -0.151038   
N79      N      0.259420000000     0.843650000000     0.325780000000    -0.151071   
N80      N      0.235720000000     0.867690000000     0.367630000000    -0.151383   
N81      N      0.239190000000     0.962280000000     0.459200000000    -0.15106    
N82      N      0.259430000000     0.499400000000     0.992640000000    -0.151038   
N83      N      0.486510000000     0.863320000000     0.110340000000    -0.151175   
N84      N      0.008000000000     0.839390000000     0.067420000000    -0.151465   
N85      N      0.105690000000     0.831840000000     0.974990000000    -0.15136    
N86      N      0.138440000000     0.872750000000     0.460140000000    -0.151184   
N87      N      0.124430000000     0.709650000000     0.112260000000    -0.15129    
N88      N      0.107970000000     0.744150000000     0.074650000000    -0.151554   
N89      N      0.479190000000     0.614490000000     0.364840000000    -0.151181   
N90      N      0.009160000000     0.589800000000     0.327020000000    -0.150911   
N91      N      0.381600000000     0.612290000000     0.450650000000    -0.151528   
N92      N      0.357020000000     0.592640000000     0.994000000000    -0.151348   
N93      N      0.356870000000     0.748310000000     0.326120000000    -0.151144   
N94      N      0.374210000000     0.707980000000     0.357290000000    -0.151452   
N95      N      0.010810000000     0.737540000000     0.979980000000    -0.151081   
N96      N      0.468890000000     0.717400000000     0.450980000000    -0.151496   
N97      N      0.011070000000     0.493800000000     0.738060000000    -0.151341   
N98      N      0.496570000000     0.955680000000     0.703290000000    -0.151398   
N99      N      0.393400000000     0.871140000000     0.711780000000    -0.151495   
N100     N      0.355000000000     0.836020000000     0.728570000000    -0.151364   
N101     N      0.139630000000     0.624620000000     0.711890000000    -0.151672   
N102     N      0.104960000000     0.587550000000     0.731730000000    -0.151575   
N103     N      0.236670000000     0.712890000000     0.698330000000    -0.151542   
N104     N      0.252060000000     0.748650000000     0.734990000000    -0.151838   
N105     N      0.387730000000     0.958060000000     0.615280000000    -0.151249   
N106     N      0.367710000000     0.494960000000     0.581500000000    -0.151441   
N107     N      0.226840000000     0.622670000000     0.604570000000    -0.151549   
N108     N      0.265610000000     0.586370000000     0.591500000000    -0.151524   
N109     N      0.136250000000     0.963780000000     0.864850000000    -0.15107    
N110     N      0.115380000000     0.499880000000     0.830480000000    -0.151057   
N111     N      0.259420000000     0.843650000000     0.825780000000    -0.151071   
N112     N      0.235720000000     0.867690000000     0.867630000000    -0.151382   
N113     N      0.239190000000     0.962280000000     0.959200000000    -0.151058   
N114     N      0.259430000000     0.499400000000     0.492640000000    -0.151136   
N115     N      0.486510000000     0.863320000000     0.610340000000    -0.15118    
N116     N      0.008000000000     0.839390000000     0.567420000000    -0.15146    
N117     N      0.105690000000     0.831840000000     0.474990000000    -0.151353   
N118     N      0.138440000000     0.872750000000     0.960140000000    -0.151188   
N119     N      0.124430000000     0.709650000000     0.612260000000    -0.151289   
N120     N      0.107970000000     0.744150000000     0.574650000000    -0.151551   
N121     N      0.479190000000     0.614490000000     0.864840000000    -0.15118    
N122     N      0.009160000000     0.589800000000     0.827020000000    -0.150909   
N123     N      0.381600000000     0.612290000000     0.950650000000    -0.151518   
N124     N      0.357020000000     0.592640000000     0.494010000000    -0.151421   
N125     N      0.356870000000     0.748310000000     0.826120000000    -0.151144   
N126     N      0.374210000000     0.707980000000     0.857290000000    -0.151452   
N127     N      0.010810000000     0.737540000000     0.479970000000    -0.151015   
N128     N      0.468890000000     0.717400000000     0.950980000000    -0.151491   
N129     N      0.511070000000     0.993800000000     0.238060000000    -0.151243   
N130     N      0.996570000000     0.455680000000     0.203290000000    -0.151362   
N131     N      0.893400000000     0.371140000000     0.211780000000    -0.151496   
N132     N      0.855000000000     0.336010000000     0.228570000000    -0.151405   
N133     N      0.639630000000     0.124620000000     0.211890000000    -0.151672   
N134     N      0.604960000000     0.087550000000     0.231730000000    -0.151575   
N135     N      0.736670000000     0.212890000000     0.198330000000    -0.151535   
N136     N      0.752060000000     0.248650000000     0.234990000000    -0.151878   
N137     N      0.887730000000     0.458060000000     0.115280000000    -0.151244   
N138     N      0.867710000000     0.994960000000     0.081500000000    -0.151301   
N139     N      0.726840000000     0.122670000000     0.104570000000    -0.151537   
N140     N      0.765610000000     0.086370000000     0.091500000000    -0.151519   
N141     N      0.636240000000     0.463770000000     0.364850000000    -0.151064   
N142     N      0.615380000000     0.999880000000     0.330480000000    -0.150915   
N143     N      0.759420000000     0.343650000000     0.325780000000    -0.151067   
N144     N      0.735720000000     0.367690000000     0.367630000000    -0.151398   
N145     N      0.739190000000     0.462280000000     0.459200000000    -0.151061   
N146     N      0.759430000000     0.999400000000     0.992640000000    -0.150875   
N147     N      0.986510000000     0.363320000000     0.110340000000    -0.151181   
N148     N      0.508000000000     0.339390000000     0.067420000000    -0.151464   
N149     N      0.605690000000     0.331840000000     0.974990000000    -0.151358   
N150     N      0.638440000000     0.372750000000     0.460140000000    -0.151203   
N151     N      0.624430000000     0.209650000000     0.112260000000    -0.151265   
N152     N      0.607970000000     0.244150000000     0.074650000000    -0.151559   
N153     N      0.979190000000     0.114490000000     0.364840000000    -0.15119    
N154     N      0.509160000000     0.089800000000     0.327020000000    -0.150913   
N155     N      0.881600000000     0.112290000000     0.450650000000    -0.151506   
N156     N      0.857020000000     0.092640000000     0.994000000000    -0.151308   
N157     N      0.856870000000     0.248310000000     0.326120000000    -0.151152   
N158     N      0.874220000000     0.207980000000     0.357290000000    -0.151467   
N159     N      0.510810000000     0.237540000000     0.979980000000    -0.151115   
N160     N      0.968890000000     0.217400000000     0.450980000000    -0.151478   
N161     N      0.511070000000     0.993800000000     0.738060000000    -0.151238   
N162     N      0.996570000000     0.455680000000     0.703290000000    -0.151381   
N163     N      0.893400000000     0.371140000000     0.711780000000    -0.151496   
N164     N      0.855000000000     0.336010000000     0.728570000000    -0.151405   
N165     N      0.639630000000     0.124620000000     0.711890000000    -0.151672   
N166     N      0.604960000000     0.087550000000     0.731730000000    -0.151575   
N167     N      0.736670000000     0.212890000000     0.698330000000    -0.151536   
N168     N      0.752060000000     0.248650000000     0.734990000000    -0.15184    
N169     N      0.887730000000     0.458060000000     0.615280000000    -0.151237   
N170     N      0.867710000000     0.994960000000     0.581500000000    -0.151312   
N171     N      0.726840000000     0.122670000000     0.604570000000    -0.151532   
N172     N      0.765610000000     0.086370000000     0.591500000000    -0.151527   
N173     N      0.636240000000     0.463770000000     0.864850000000    -0.151061   
N174     N      0.615380000000     0.999880000000     0.830480000000    -0.150934   
N175     N      0.759420000000     0.343650000000     0.825780000000    -0.151067   
N176     N      0.735720000000     0.367690000000     0.867630000000    -0.151397   
N177     N      0.739190000000     0.462280000000     0.959200000000    -0.151059   
N178     N      0.759430000000     0.999400000000     0.492640000000    -0.150973   
N179     N      0.986510000000     0.363320000000     0.610340000000    -0.151186   
N180     N      0.508000000000     0.339390000000     0.567420000000    -0.151458   
N181     N      0.605690000000     0.331840000000     0.474990000000    -0.15135    
N182     N      0.638440000000     0.372750000000     0.960140000000    -0.151207   
N183     N      0.624430000000     0.209650000000     0.612260000000    -0.151264   
N184     N      0.607970000000     0.244150000000     0.574650000000    -0.151556   
N185     N      0.979190000000     0.114490000000     0.864840000000    -0.151189   
N186     N      0.509160000000     0.089800000000     0.827020000000    -0.15091    
N187     N      0.881600000000     0.112290000000     0.950650000000    -0.151496   
N188     N      0.857020000000     0.092640000000     0.494010000000    -0.151381   
N189     N      0.856870000000     0.248310000000     0.826120000000    -0.151152   
N190     N      0.874220000000     0.207980000000     0.857290000000    -0.151467   
N191     N      0.510810000000     0.237540000000     0.479970000000    -0.151048   
N192     N      0.968890000000     0.217400000000     0.950980000000    -0.151473   
N193     N      0.511070000000     0.493800000000     0.238060000000    -0.151338   
N194     N      0.996570000000     0.955680000000     0.203290000000    -0.151377   
N195     N      0.893400000000     0.871140000000     0.211780000000    -0.15149    
N196     N      0.855000000000     0.836020000000     0.228570000000    -0.151382   
N197     N      0.639630000000     0.624620000000     0.211890000000    -0.151667   
N198     N      0.604960000000     0.587550000000     0.231730000000    -0.15159    
N199     N      0.736670000000     0.712890000000     0.198330000000    -0.15155    
N200     N      0.752060000000     0.748650000000     0.234990000000    -0.151874   
N201     N      0.887730000000     0.958060000000     0.115280000000    -0.151257   
N202     N      0.867710000000     0.494960000000     0.081500000000    -0.151442   
N203     N      0.726840000000     0.622670000000     0.104570000000    -0.151536   
N204     N      0.765610000000     0.586370000000     0.091500000000    -0.151516   
N205     N      0.636240000000     0.963780000000     0.364850000000    -0.151028   
N206     N      0.615380000000     0.499880000000     0.330480000000    -0.151042   
N207     N      0.759420000000     0.843650000000     0.325780000000    -0.151057   
N208     N      0.735720000000     0.867690000000     0.367630000000    -0.151397   
N209     N      0.739190000000     0.962280000000     0.459200000000    -0.151061   
N210     N      0.759430000000     0.499400000000     0.992640000000    -0.151002   
N211     N      0.986510000000     0.863320000000     0.110340000000    -0.15118    
N212     N      0.508000000000     0.839390000000     0.067420000000    -0.151465   
N213     N      0.605690000000     0.831840000000     0.974990000000    -0.151354   
N214     N      0.638440000000     0.872750000000     0.460140000000    -0.151202   
N215     N      0.624430000000     0.709650000000     0.112260000000    -0.151282   
N216     N      0.607970000000     0.744150000000     0.074650000000    -0.151557   
N217     N      0.979190000000     0.614490000000     0.364840000000    -0.151189   
N218     N      0.509160000000     0.589800000000     0.327020000000    -0.150911   
N219     N      0.881600000000     0.612290000000     0.450650000000    -0.151503   
N220     N      0.857020000000     0.592640000000     0.994000000000    -0.151343   
N221     N      0.856870000000     0.748310000000     0.326120000000    -0.151152   
N222     N      0.874220000000     0.707980000000     0.357290000000    -0.151498   
N223     N      0.510810000000     0.737540000000     0.979980000000    -0.151109   
N224     N      0.968890000000     0.717400000000     0.450980000000    -0.151497   
N225     N      0.511070000000     0.493800000000     0.738060000000    -0.151333   
N226     N      0.996570000000     0.955680000000     0.703290000000    -0.151396   
N227     N      0.893400000000     0.871140000000     0.711780000000    -0.15149    
N228     N      0.855000000000     0.836020000000     0.728570000000    -0.151382   
N229     N      0.639630000000     0.624620000000     0.711890000000    -0.151667   
N230     N      0.604960000000     0.587550000000     0.731730000000    -0.15159    
N231     N      0.736670000000     0.712890000000     0.698330000000    -0.15155    
N232     N      0.752060000000     0.748650000000     0.734990000000    -0.151836   
N233     N      0.887730000000     0.958060000000     0.615280000000    -0.15125    
N234     N      0.867710000000     0.494960000000     0.581500000000    -0.151453   
N235     N      0.726840000000     0.622670000000     0.604570000000    -0.151532   
N236     N      0.765610000000     0.586370000000     0.591500000000    -0.151524   
N237     N      0.636240000000     0.963780000000     0.864850000000    -0.151025   
N238     N      0.615380000000     0.499880000000     0.830480000000    -0.151061   
N239     N      0.759420000000     0.843650000000     0.825780000000    -0.151057   
N240     N      0.735720000000     0.867690000000     0.867630000000    -0.151396   
N241     N      0.739190000000     0.962280000000     0.959200000000    -0.151059   
N242     N      0.759430000000     0.499400000000     0.492640000000    -0.1511     
N243     N      0.986510000000     0.863320000000     0.610340000000    -0.151185   
N244     N      0.508000000000     0.839390000000     0.567420000000    -0.151459   
N245     N      0.605690000000     0.831840000000     0.474990000000    -0.151346   
N246     N      0.638440000000     0.872750000000     0.960140000000    -0.151206   
N247     N      0.624430000000     0.709650000000     0.612260000000    -0.151281   
N248     N      0.607970000000     0.744150000000     0.574650000000    -0.151554   
N249     N      0.979190000000     0.614490000000     0.864840000000    -0.151187   
N250     N      0.509160000000     0.589800000000     0.827020000000    -0.150908   
N251     N      0.881600000000     0.612290000000     0.950650000000    -0.151492   
N252     N      0.857020000000     0.592640000000     0.494010000000    -0.151417   
N253     N      0.856870000000     0.748310000000     0.826120000000    -0.151152   
N254     N      0.874220000000     0.707980000000     0.857290000000    -0.151497   
N255     N      0.510810000000     0.737540000000     0.479970000000    -0.151043   
N256     N      0.968890000000     0.717400000000     0.950980000000    -0.151492   
O1       O      0.421170000000     0.128140000000     0.434690000000    -0.248207   
O2       O      0.437350000000     0.126030000000     0.379160000000    -0.248134   
O3       O      0.440470000000     0.182890000000     0.445580000000    -0.250291   
O4       O      0.406270000000     0.176610000000     0.363500000000    -0.250499   
O5       O      0.392150000000     0.197350000000     0.396040000000    -0.249492   
O6       O      0.457000000000     0.200510000000     0.412240000000    -0.248198   
O7       O      0.384650000000     0.146700000000     0.423250000000    -0.248936   
O8       O      0.470010000000     0.151800000000     0.386910000000    -0.248099   
O9       O      0.084230000000     0.249850000000     0.037710000000    -0.250077   
O10      O      0.047360000000     0.328740000000     0.047360000000    -0.248818   
O11      O      0.024490000000     0.253350000000     0.018670000000    -0.245464   
O12      O      0.100140000000     0.300160000000     0.005110000000    -0.250112   
O13      O      0.065320000000     0.321370000000     0.993300000000    -0.245921   
O14      O      0.041130000000     0.270530000000     0.985150000000    -0.249434   
O15      O      0.083470000000     0.280500000000     0.065000000000    -0.251284   
O16      O      0.016030000000     0.300420000000     0.047860000000    -0.249101   
O17      O      0.208000000000     0.430390000000     0.452390000000    -0.249581   
O18      O      0.164320000000     0.429250000000     0.371830000000    -0.25114    
O19      O      0.178950000000     0.383450000000     0.442270000000    -0.245232   
O20      O      0.228660000000     0.405860000000     0.388940000000    -0.249618   
O21      O      0.196320000000     0.378630000000     0.387510000000    -0.24836    
O22      O      0.144550000000     0.405810000000     0.431550000000    -0.249809   
O23      O      0.219880000000     0.453380000000     0.420480000000    -0.246509   
O24      O      0.158130000000     0.455760000000     0.402520000000    -0.247881   
O25      O      0.291270000000     0.030690000000     0.999620000000    -0.249674   
O26      O      0.302640000000     0.079780000000     0.066460000000    -0.248574   
O27      O      0.317660000000     0.078410000000     0.011770000000    -0.245271   
O28      O      0.341330000000     0.003190000000     0.046570000000    -0.249097   
O29      O      0.340500000000     0.030480000000     0.077150000000    -0.251307   
O30      O      0.353630000000     0.057330000000     0.020260000000    -0.25045    
O31      O      0.279200000000     0.007440000000     0.031290000000    -0.24611    
O32      O      0.273330000000     0.049580000000     0.068170000000    -0.249368   
O33      O      0.151110000000     0.174300000000     0.119820000000    -0.251217   
O34      O      0.219620000000     0.159490000000     0.127930000000    -0.251503   
O35      O      0.143470000000     0.159240000000     0.184830000000    -0.251538   
O36      O      0.211150000000     0.176610000000     0.191960000000    -0.251814   
O37      O      0.209250000000     0.206460000000     0.163800000000    -0.245998   
O38      O      0.174970000000     0.131050000000     0.184720000000    -0.24602    
O39      O      0.152010000000     0.205150000000     0.146980000000    -0.245766   
O40      O      0.190160000000     0.129370000000     0.130110000000    -0.24605    
O41      O      0.298390000000     0.332720000000     0.305040000000    -0.24633    
O42      O      0.277290000000     0.285020000000     0.242150000000    -0.251789   
O43      O      0.338340000000     0.258960000000     0.287580000000    -0.24478    
O44      O      0.316420000000     0.330540000000     0.251770000000    -0.24621    
O45      O      0.346690000000     0.301290000000     0.254520000000    -0.249108   
O46      O      0.326130000000     0.280880000000     0.320120000000    -0.250756   
O47      O      0.265440000000     0.306120000000     0.303170000000    -0.250502   
O48      O      0.278150000000     0.255220000000     0.270340000000    -0.249824   
O49      O      0.413820000000     0.421890000000     0.121200000000    -0.251181   
O50      O      0.468280000000     0.421230000000     0.197160000000    -0.250884   
O51      O      0.448990000000     0.372780000000     0.133940000000    -0.246428   
O52      O      0.431390000000     0.375980000000     0.187580000000    -0.245327   
O53      O      0.401150000000     0.405320000000     0.184980000000    -0.250936   
O54      O      0.480390000000     0.401040000000     0.132620000000    -0.250774   
O55      O      0.413760000000     0.450610000000     0.150510000000    -0.246864   
O56      O      0.472410000000     0.448500000000     0.166790000000    -0.246439   
O57      O      0.018010000000     0.052740000000     0.304450000000    -0.249939   
O58      O      0.100210000000     0.052000000000     0.257490000000    -0.250239   
O59      O      0.032410000000     0.003270000000     0.275670000000    -0.246834   
O60      O      0.085620000000     0.033150000000     0.323550000000    -0.250266   
O61      O      0.092090000000     0.006180000000     0.293330000000    -0.247348   
O62      O      0.037190000000     0.029670000000     0.244640000000    -0.251248   
O63      O      0.050310000000     0.079500000000     0.310160000000    -0.245449   
O64      O      0.068160000000     0.079570000000     0.256680000000    -0.2471     
O65      O      0.421170000000     0.128140000000     0.934690000000    -0.2482     
O66      O      0.437350000000     0.126030000000     0.879160000000    -0.248133   
O67      O      0.440470000000     0.182890000000     0.945580000000    -0.250283   
O68      O      0.406270000000     0.176610000000     0.863500000000    -0.250499   
O69      O      0.392150000000     0.197350000000     0.896040000000    -0.249488   
O70      O      0.457000000000     0.200510000000     0.912240000000    -0.248197   
O71      O      0.384650000000     0.146700000000     0.923250000000    -0.248933   
O72      O      0.470010000000     0.151800000000     0.886910000000    -0.248097   
O73      O      0.084230000000     0.249850000000     0.537710000000    -0.250063   
O74      O      0.047360000000     0.328740000000     0.547360000000    -0.248802   
O75      O      0.024490000000     0.253350000000     0.518670000000    -0.245373   
O76      O      0.100140000000     0.300160000000     0.505110000000    -0.250022   
O77      O      0.065320000000     0.321370000000     0.493300000000    -0.245937   
O78      O      0.041130000000     0.270530000000     0.485150000000    -0.24942    
O79      O      0.083470000000     0.280500000000     0.565000000000    -0.251281   
O80      O      0.016030000000     0.300420000000     0.547860000000    -0.249091   
O81      O      0.208000000000     0.430390000000     0.952390000000    -0.249572   
O82      O      0.164320000000     0.429250000000     0.871830000000    -0.25114    
O83      O      0.178950000000     0.383450000000     0.942270000000    -0.245227   
O84      O      0.228660000000     0.405860000000     0.888940000000    -0.249616   
O85      O      0.196320000000     0.378630000000     0.887510000000    -0.248359   
O86      O      0.144550000000     0.405810000000     0.931550000000    -0.249806   
O87      O      0.219880000000     0.453380000000     0.920480000000    -0.246505   
O88      O      0.158130000000     0.455760000000     0.902520000000    -0.247877   
O89      O      0.291270000000     0.030690000000     0.499620000000    -0.249794   
O90      O      0.302640000000     0.079780000000     0.566460000000    -0.248568   
O91      O      0.317660000000     0.078410000000     0.511770000000    -0.245268   
O92      O      0.341330000000     0.003190000000     0.546570000000    -0.249084   
O93      O      0.340500000000     0.030480000000     0.577150000000    -0.251306   
O94      O      0.353630000000     0.057330000000     0.520260000000    -0.250463   
O95      O      0.279200000000     0.007440000000     0.531290000000    -0.246138   
O96      O      0.273330000000     0.049580000000     0.568170000000    -0.249362   
O97      O      0.151110000000     0.174300000000     0.619820000000    -0.251214   
O98      O      0.219620000000     0.159490000000     0.627930000000    -0.2515     
O99      O      0.143470000000     0.159240000000     0.684830000000    -0.251538   
O100     O      0.211150000000     0.176610000000     0.691960000000    -0.251814   
O101     O      0.209250000000     0.206460000000     0.663800000000    -0.245996   
O102     O      0.174970000000     0.131050000000     0.684720000000    -0.24602    
O103     O      0.152010000000     0.205150000000     0.646980000000    -0.245765   
O104     O      0.190160000000     0.129370000000     0.630110000000    -0.246048   
O105     O      0.298390000000     0.332720000000     0.805040000000    -0.246329   
O106     O      0.277290000000     0.285020000000     0.742150000000    -0.251734   
O107     O      0.338340000000     0.258960000000     0.787580000000    -0.244784   
O108     O      0.316420000000     0.330540000000     0.751770000000    -0.246211   
O109     O      0.346690000000     0.301290000000     0.754520000000    -0.24911    
O110     O      0.326130000000     0.280880000000     0.820120000000    -0.250754   
O111     O      0.265440000000     0.306120000000     0.803170000000    -0.2505     
O112     O      0.278150000000     0.255220000000     0.770350000000    -0.249676   
O113     O      0.413820000000     0.421890000000     0.621200000000    -0.251177   
O114     O      0.468280000000     0.421230000000     0.697160000000    -0.250886   
O115     O      0.448990000000     0.372780000000     0.633940000000    -0.246427   
O116     O      0.431390000000     0.375980000000     0.687580000000    -0.245327   
O117     O      0.401150000000     0.405320000000     0.684980000000    -0.250936   
O118     O      0.480390000000     0.401040000000     0.632620000000    -0.250772   
O119     O      0.413760000000     0.450610000000     0.650510000000    -0.246863   
O120     O      0.472410000000     0.448500000000     0.666790000000    -0.24644    
O121     O      0.018010000000     0.052740000000     0.804450000000    -0.249938   
O122     O      0.100210000000     0.052000000000     0.757490000000    -0.250235   
O123     O      0.032410000000     0.003270000000     0.775670000000    -0.246834   
O124     O      0.085620000000     0.033150000000     0.823540000000    -0.250329   
O125     O      0.092090000000     0.006180000000     0.793330000000    -0.247359   
O126     O      0.037190000000     0.029670000000     0.744640000000    -0.251249   
O127     O      0.050310000000     0.079500000000     0.810160000000    -0.245446   
O128     O      0.068160000000     0.079570000000     0.756680000000    -0.2471     
O129     O      0.421170000000     0.628140000000     0.434690000000    -0.248203   
O130     O      0.437350000000     0.626030000000     0.379160000000    -0.248131   
O131     O      0.440470000000     0.682890000000     0.445580000000    -0.250292   
O132     O      0.406270000000     0.676610000000     0.363500000000    -0.250396   
O133     O      0.392150000000     0.697350000000     0.396040000000    -0.249487   
O134     O      0.457000000000     0.700510000000     0.412240000000    -0.248203   
O135     O      0.384650000000     0.646700000000     0.423250000000    -0.24893    
O136     O      0.470010000000     0.651800000000     0.386910000000    -0.2481     
O137     O      0.084230000000     0.749850000000     0.037710000000    -0.250076   
O138     O      0.047360000000     0.828740000000     0.047360000000    -0.248813   
O139     O      0.024490000000     0.753350000000     0.018670000000    -0.245464   
O140     O      0.100140000000     0.800160000000     0.005110000000    -0.250112   
O141     O      0.065320000000     0.821370000000     0.993300000000    -0.245919   
O142     O      0.041130000000     0.770530000000     0.985150000000    -0.249433   
O143     O      0.083470000000     0.780500000000     0.065000000000    -0.251283   
O144     O      0.016030000000     0.800420000000     0.047860000000    -0.249101   
O145     O      0.208000000000     0.930390000000     0.452390000000    -0.249576   
O146     O      0.164320000000     0.929250000000     0.371830000000    -0.251122   
O147     O      0.178950000000     0.883450000000     0.442270000000    -0.245231   
O148     O      0.228660000000     0.905860000000     0.388940000000    -0.249612   
O149     O      0.196320000000     0.878630000000     0.387510000000    -0.248361   
O150     O      0.144550000000     0.905810000000     0.431550000000    -0.249805   
O151     O      0.219880000000     0.953380000000     0.420480000000    -0.246495   
O152     O      0.158130000000     0.955760000000     0.402520000000    -0.247848   
O153     O      0.291270000000     0.530690000000     0.999620000000    -0.249679   
O154     O      0.302640000000     0.579780000000     0.066460000000    -0.248574   
O155     O      0.317660000000     0.578410000000     0.011770000000    -0.245254   
O156     O      0.341330000000     0.503190000000     0.046570000000    -0.249078   
O157     O      0.340500000000     0.530480000000     0.077150000000    -0.251321   
O158     O      0.353630000000     0.557330000000     0.020260000000    -0.250328   
O159     O      0.279200000000     0.507440000000     0.031290000000    -0.24609    
O160     O      0.273330000000     0.549580000000     0.068170000000    -0.249353   
O161     O      0.151110000000     0.674310000000     0.119820000000    -0.251352   
O162     O      0.219620000000     0.659490000000     0.127930000000    -0.2515     
O163     O      0.143470000000     0.659240000000     0.184830000000    -0.251544   
O164     O      0.211150000000     0.676610000000     0.191960000000    -0.251813   
O165     O      0.209250000000     0.706460000000     0.163800000000    -0.245996   
O166     O      0.174970000000     0.631050000000     0.184720000000    -0.246017   
O167     O      0.152010000000     0.705160000000     0.146980000000    -0.245751   
O168     O      0.190160000000     0.629370000000     0.130110000000    -0.246047   
O169     O      0.298390000000     0.832730000000     0.305040000000    -0.246283   
O170     O      0.277290000000     0.785020000000     0.242150000000    -0.251788   
O171     O      0.338340000000     0.758960000000     0.287580000000    -0.244781   
O172     O      0.316420000000     0.830540000000     0.251770000000    -0.246188   
O173     O      0.346690000000     0.801290000000     0.254520000000    -0.249096   
O174     O      0.326130000000     0.780880000000     0.320120000000    -0.250763   
O175     O      0.265440000000     0.806120000000     0.303170000000    -0.250498   
O176     O      0.278150000000     0.755220000000     0.270340000000    -0.249824   
O177     O      0.413820000000     0.921890000000     0.121200000000    -0.251173   
O178     O      0.468280000000     0.921230000000     0.197160000000    -0.250879   
O179     O      0.448990000000     0.872780000000     0.133940000000    -0.246453   
O180     O      0.431390000000     0.875980000000     0.187580000000    -0.245351   
O181     O      0.401150000000     0.905320000000     0.184980000000    -0.250934   
O182     O      0.480390000000     0.901040000000     0.132620000000    -0.250774   
O183     O      0.413760000000     0.950610000000     0.150510000000    -0.246825   
O184     O      0.472410000000     0.948500000000     0.166790000000    -0.246403   
O185     O      0.018010000000     0.552740000000     0.304450000000    -0.249929   
O186     O      0.100210000000     0.552000000000     0.257490000000    -0.250223   
O187     O      0.032410000000     0.503270000000     0.275670000000    -0.24681    
O188     O      0.085620000000     0.533150000000     0.323550000000    -0.250277   
O189     O      0.092090000000     0.506180000000     0.293330000000    -0.247326   
O190     O      0.037190000000     0.529670000000     0.244640000000    -0.251379   
O191     O      0.050310000000     0.579500000000     0.310160000000    -0.245446   
O192     O      0.068160000000     0.579570000000     0.256680000000    -0.247095   
O193     O      0.421170000000     0.628140000000     0.934690000000    -0.248195   
O194     O      0.437350000000     0.626030000000     0.879160000000    -0.24813    
O195     O      0.440470000000     0.682890000000     0.945580000000    -0.250284   
O196     O      0.406270000000     0.676610000000     0.863500000000    -0.250397   
O197     O      0.392150000000     0.697350000000     0.896040000000    -0.249484   
O198     O      0.457000000000     0.700510000000     0.912240000000    -0.248202   
O199     O      0.384650000000     0.646700000000     0.923250000000    -0.248926   
O200     O      0.470010000000     0.651800000000     0.886910000000    -0.248098   
O201     O      0.084230000000     0.749850000000     0.537710000000    -0.250063   
O202     O      0.047360000000     0.828740000000     0.547360000000    -0.248797   
O203     O      0.024490000000     0.753350000000     0.518670000000    -0.245372   
O204     O      0.100140000000     0.800160000000     0.505110000000    -0.250021   
O205     O      0.065320000000     0.821370000000     0.493300000000    -0.245935   
O206     O      0.041130000000     0.770530000000     0.485150000000    -0.249419   
O207     O      0.083470000000     0.780500000000     0.565000000000    -0.25128    
O208     O      0.016030000000     0.800420000000     0.547860000000    -0.249091   
O209     O      0.208000000000     0.930390000000     0.952390000000    -0.249568   
O210     O      0.164320000000     0.929250000000     0.871830000000    -0.251121   
O211     O      0.178950000000     0.883450000000     0.942270000000    -0.245227   
O212     O      0.228660000000     0.905860000000     0.888940000000    -0.24961    
O213     O      0.196320000000     0.878630000000     0.887510000000    -0.24836    
O214     O      0.144550000000     0.905810000000     0.931550000000    -0.249802   
O215     O      0.219880000000     0.953380000000     0.920480000000    -0.246492   
O216     O      0.158130000000     0.955760000000     0.902520000000    -0.247843   
O217     O      0.291270000000     0.530690000000     0.499620000000    -0.249799   
O218     O      0.302640000000     0.579780000000     0.566460000000    -0.248568   
O219     O      0.317660000000     0.578410000000     0.511770000000    -0.245252   
O220     O      0.341330000000     0.503190000000     0.546570000000    -0.249065   
O221     O      0.340500000000     0.530480000000     0.577150000000    -0.25132    
O222     O      0.353630000000     0.557330000000     0.520260000000    -0.250342   
O223     O      0.279200000000     0.507440000000     0.531290000000    -0.246118   
O224     O      0.273330000000     0.549580000000     0.568170000000    -0.249347   
O225     O      0.151110000000     0.674310000000     0.619820000000    -0.251349   
O226     O      0.219620000000     0.659490000000     0.627930000000    -0.251498   
O227     O      0.143470000000     0.659240000000     0.684830000000    -0.251544   
O228     O      0.211150000000     0.676610000000     0.691960000000    -0.251813   
O229     O      0.209250000000     0.706460000000     0.663800000000    -0.245995   
O230     O      0.174970000000     0.631050000000     0.684720000000    -0.246017   
O231     O      0.152010000000     0.705160000000     0.646980000000    -0.245751   
O232     O      0.190160000000     0.629370000000     0.630110000000    -0.246045   
O233     O      0.298390000000     0.832730000000     0.805040000000    -0.246282   
O234     O      0.277290000000     0.785020000000     0.742150000000    -0.251734   
O235     O      0.338340000000     0.758960000000     0.787580000000    -0.244785   
O236     O      0.316420000000     0.830540000000     0.751770000000    -0.24619    
O237     O      0.346690000000     0.801290000000     0.754520000000    -0.249098   
O238     O      0.326130000000     0.780880000000     0.820120000000    -0.250761   
O239     O      0.265440000000     0.806120000000     0.803170000000    -0.250496   
O240     O      0.278150000000     0.755220000000     0.770350000000    -0.249675   
O241     O      0.413820000000     0.921890000000     0.621200000000    -0.251169   
O242     O      0.468280000000     0.921230000000     0.697160000000    -0.25088    
O243     O      0.448990000000     0.872780000000     0.633940000000    -0.246452   
O244     O      0.431390000000     0.875980000000     0.687580000000    -0.245351   
O245     O      0.401150000000     0.905320000000     0.684980000000    -0.250933   
O246     O      0.480390000000     0.901040000000     0.632620000000    -0.250773   
O247     O      0.413760000000     0.950610000000     0.650510000000    -0.246825   
O248     O      0.472410000000     0.948500000000     0.666790000000    -0.246404   
O249     O      0.018010000000     0.552740000000     0.804450000000    -0.249929   
O250     O      0.100210000000     0.552000000000     0.757490000000    -0.25022    
O251     O      0.032410000000     0.503270000000     0.775670000000    -0.24681    
O252     O      0.085620000000     0.533150000000     0.823540000000    -0.250339   
O253     O      0.092090000000     0.506180000000     0.793330000000    -0.247336   
O254     O      0.037190000000     0.529670000000     0.744640000000    -0.251379   
O255     O      0.050310000000     0.579500000000     0.810160000000    -0.245442   
O256     O      0.068160000000     0.579570000000     0.756680000000    -0.247095   
O257     O      0.921170000000     0.128140000000     0.434690000000    -0.248336   
O258     O      0.937350000000     0.126030000000     0.379160000000    -0.248132   
O259     O      0.940470000000     0.182890000000     0.445580000000    -0.250291   
O260     O      0.906270000000     0.176610000000     0.363500000000    -0.250517   
O261     O      0.892150000000     0.197350000000     0.396040000000    -0.249517   
O262     O      0.957000000000     0.200510000000     0.412240000000    -0.248198   
O263     O      0.884650000000     0.146700000000     0.423250000000    -0.248908   
O264     O      0.970010000000     0.151800000000     0.386910000000    -0.248099   
O265     O      0.584230000000     0.249850000000     0.037710000000    -0.25008    
O266     O      0.547360000000     0.328740000000     0.047360000000    -0.248817   
O267     O      0.524490000000     0.253350000000     0.018670000000    -0.245502   
O268     O      0.600140000000     0.300160000000     0.005110000000    -0.250114   
O269     O      0.565320000000     0.321370000000     0.993300000000    -0.245918   
O270     O      0.541120000000     0.270530000000     0.985150000000    -0.24953    
O271     O      0.583470000000     0.280500000000     0.065000000000    -0.251284   
O272     O      0.516030000000     0.300420000000     0.047860000000    -0.249096   
O273     O      0.708000000000     0.430390000000     0.452390000000    -0.249581   
O274     O      0.664320000000     0.429250000000     0.371830000000    -0.251122   
O275     O      0.678950000000     0.383450000000     0.442270000000    -0.245234   
O276     O      0.728660000000     0.405860000000     0.388940000000    -0.249622   
O277     O      0.696320000000     0.378630000000     0.387510000000    -0.248363   
O278     O      0.644550000000     0.405810000000     0.431550000000    -0.249809   
O279     O      0.719880000000     0.453380000000     0.420480000000    -0.24651    
O280     O      0.658130000000     0.455760000000     0.402520000000    -0.247861   
O281     O      0.791270000000     0.030690000000     0.999620000000    -0.249759   
O282     O      0.802640000000     0.079780000000     0.066460000000    -0.248572   
O283     O      0.817660000000     0.078410000000     0.011770000000    -0.245266   
O284     O      0.841340000000     0.003190000000     0.046570000000    -0.249147   
O285     O      0.840500000000     0.030480000000     0.077150000000    -0.251332   
O286     O      0.853630000000     0.057330000000     0.020260000000    -0.250445   
O287     O      0.779200000000     0.007440000000     0.031290000000    -0.246148   
O288     O      0.773330000000     0.049580000000     0.068170000000    -0.249365   
O289     O      0.651110000000     0.174300000000     0.119820000000    -0.251221   
O290     O      0.719630000000     0.159490000000     0.127930000000    -0.251448   
O291     O      0.643470000000     0.159240000000     0.184830000000    -0.251537   
O292     O      0.711150000000     0.176610000000     0.191960000000    -0.251814   
O293     O      0.709250000000     0.206460000000     0.163800000000    -0.246      
O294     O      0.674970000000     0.131050000000     0.184720000000    -0.246019   
O295     O      0.652010000000     0.205150000000     0.146980000000    -0.245766   
O296     O      0.690160000000     0.129370000000     0.130110000000    -0.246041   
O297     O      0.798390000000     0.332720000000     0.305040000000    -0.246329   
O298     O      0.777290000000     0.285020000000     0.242150000000    -0.251789   
O299     O      0.838340000000     0.258960000000     0.287580000000    -0.244781   
O300     O      0.816420000000     0.330540000000     0.251770000000    -0.246211   
O301     O      0.846690000000     0.301290000000     0.254520000000    -0.249109   
O302     O      0.826130000000     0.280880000000     0.320120000000    -0.250757   
O303     O      0.765440000000     0.306120000000     0.303170000000    -0.250502   
O304     O      0.778150000000     0.255220000000     0.270340000000    -0.249825   
O305     O      0.913810000000     0.421890000000     0.121200000000    -0.251227   
O306     O      0.968280000000     0.421230000000     0.197160000000    -0.250884   
O307     O      0.948990000000     0.372780000000     0.133940000000    -0.246428   
O308     O      0.931390000000     0.375980000000     0.187580000000    -0.245326   
O309     O      0.901150000000     0.405320000000     0.184980000000    -0.250932   
O310     O      0.980390000000     0.401040000000     0.132620000000    -0.250778   
O311     O      0.913760000000     0.450610000000     0.150510000000    -0.246888   
O312     O      0.972410000000     0.448500000000     0.166790000000    -0.246441   
O313     O      0.518010000000     0.052740000000     0.304450000000    -0.249938   
O314     O      0.600210000000     0.052000000000     0.257490000000    -0.250235   
O315     O      0.532410000000     0.003270000000     0.275670000000    -0.24684    
O316     O      0.585620000000     0.033150000000     0.323550000000    -0.250284   
O317     O      0.592100000000     0.006180000000     0.293330000000    -0.247375   
O318     O      0.537190000000     0.029670000000     0.244640000000    -0.251248   
O319     O      0.550310000000     0.079500000000     0.310160000000    -0.245449   
O320     O      0.568160000000     0.079570000000     0.256680000000    -0.2471     
O321     O      0.921170000000     0.128140000000     0.934690000000    -0.248328   
O322     O      0.937350000000     0.126030000000     0.879160000000    -0.248131   
O323     O      0.940470000000     0.182890000000     0.945580000000    -0.250282   
O324     O      0.906270000000     0.176610000000     0.863500000000    -0.250517   
O325     O      0.892150000000     0.197350000000     0.896040000000    -0.249513   
O326     O      0.957000000000     0.200510000000     0.912240000000    -0.248196   
O327     O      0.884650000000     0.146700000000     0.923250000000    -0.248904   
O328     O      0.970010000000     0.151800000000     0.886910000000    -0.248098   
O329     O      0.584230000000     0.249850000000     0.537710000000    -0.250066   
O330     O      0.547360000000     0.328740000000     0.547360000000    -0.248801   
O331     O      0.524490000000     0.253350000000     0.518670000000    -0.24541    
O332     O      0.600140000000     0.300160000000     0.505110000000    -0.250023   
O333     O      0.565320000000     0.321370000000     0.493300000000    -0.245934   
O334     O      0.541120000000     0.270530000000     0.485150000000    -0.249516   
O335     O      0.583470000000     0.280500000000     0.565000000000    -0.251281   
O336     O      0.516030000000     0.300420000000     0.547860000000    -0.249086   
O337     O      0.708000000000     0.430390000000     0.952390000000    -0.249573   
O338     O      0.664320000000     0.429250000000     0.871830000000    -0.251122   
O339     O      0.678950000000     0.383450000000     0.942270000000    -0.245229   
O340     O      0.728660000000     0.405860000000     0.888940000000    -0.24962    
O341     O      0.696320000000     0.378630000000     0.887510000000    -0.248362   
O342     O      0.644550000000     0.405810000000     0.931550000000    -0.249806   
O343     O      0.719880000000     0.453380000000     0.920480000000    -0.246506   
O344     O      0.658130000000     0.455760000000     0.902520000000    -0.247857   
O345     O      0.791270000000     0.030690000000     0.499620000000    -0.249879   
O346     O      0.802640000000     0.079780000000     0.566460000000    -0.248566   
O347     O      0.817660000000     0.078410000000     0.511770000000    -0.245263   
O348     O      0.841340000000     0.003190000000     0.546570000000    -0.249134   
O349     O      0.840500000000     0.030480000000     0.577150000000    -0.251331   
O350     O      0.853630000000     0.057330000000     0.520260000000    -0.250458   
O351     O      0.779200000000     0.007440000000     0.531290000000    -0.246176   
O352     O      0.773330000000     0.049580000000     0.568170000000    -0.249359   
O353     O      0.651110000000     0.174300000000     0.619820000000    -0.251217   
O354     O      0.719630000000     0.159490000000     0.627930000000    -0.251445   
O355     O      0.643470000000     0.159240000000     0.684830000000    -0.251537   
O356     O      0.711150000000     0.176610000000     0.691960000000    -0.251815   
O357     O      0.709250000000     0.206460000000     0.663800000000    -0.245999   
O358     O      0.674970000000     0.131050000000     0.684720000000    -0.246019   
O359     O      0.652010000000     0.205150000000     0.646980000000    -0.245765   
O360     O      0.690160000000     0.129370000000     0.630110000000    -0.246039   
O361     O      0.798390000000     0.332720000000     0.805040000000    -0.246328   
O362     O      0.777290000000     0.285020000000     0.742150000000    -0.251734   
O363     O      0.838340000000     0.258960000000     0.787580000000    -0.244784   
O364     O      0.816420000000     0.330540000000     0.751770000000    -0.246213   
O365     O      0.846690000000     0.301290000000     0.754520000000    -0.249111   
O366     O      0.826130000000     0.280880000000     0.820120000000    -0.250755   
O367     O      0.765440000000     0.306120000000     0.803170000000    -0.250499   
O368     O      0.778150000000     0.255220000000     0.770350000000    -0.249676   
O369     O      0.913810000000     0.421890000000     0.621200000000    -0.251224   
O370     O      0.968280000000     0.421230000000     0.697160000000    -0.250886   
O371     O      0.948990000000     0.372780000000     0.633940000000    -0.246428   
O372     O      0.931390000000     0.375980000000     0.687580000000    -0.245326   
O373     O      0.901150000000     0.405320000000     0.684980000000    -0.250932   
O374     O      0.980390000000     0.401040000000     0.632620000000    -0.250776   
O375     O      0.913760000000     0.450610000000     0.650510000000    -0.246887   
O376     O      0.972410000000     0.448500000000     0.666790000000    -0.246442   
O377     O      0.518010000000     0.052740000000     0.804450000000    -0.249938   
O378     O      0.600210000000     0.052000000000     0.757490000000    -0.250232   
O379     O      0.532410000000     0.003270000000     0.775670000000    -0.246839   
O380     O      0.585620000000     0.033150000000     0.823540000000    -0.250347   
O381     O      0.592100000000     0.006180000000     0.793330000000    -0.247386   
O382     O      0.537190000000     0.029670000000     0.744640000000    -0.251248   
O383     O      0.550310000000     0.079500000000     0.810160000000    -0.245445   
O384     O      0.568160000000     0.079570000000     0.756680000000    -0.2471     
O385     O      0.921170000000     0.628140000000     0.434690000000    -0.248331   
O386     O      0.937350000000     0.626030000000     0.379160000000    -0.248129   
O387     O      0.940470000000     0.682890000000     0.445580000000    -0.250292   
O388     O      0.906270000000     0.676610000000     0.363500000000    -0.250415   
O389     O      0.892150000000     0.697350000000     0.396040000000    -0.249512   
O390     O      0.957000000000     0.700510000000     0.412240000000    -0.248203   
O391     O      0.884650000000     0.646700000000     0.423250000000    -0.248901   
O392     O      0.970010000000     0.651800000000     0.386910000000    -0.2481     
O393     O      0.584230000000     0.749850000000     0.037710000000    -0.250079   
O394     O      0.547360000000     0.828740000000     0.047360000000    -0.248812   
O395     O      0.524490000000     0.753350000000     0.018670000000    -0.245502   
O396     O      0.600140000000     0.800160000000     0.005110000000    -0.250113   
O397     O      0.565320000000     0.821370000000     0.993300000000    -0.245916   
O398     O      0.541120000000     0.770530000000     0.985150000000    -0.249529   
O399     O      0.583470000000     0.780500000000     0.065000000000    -0.251283   
O400     O      0.516030000000     0.800420000000     0.047860000000    -0.249097   
O401     O      0.708000000000     0.930390000000     0.452390000000    -0.249576   
O402     O      0.664320000000     0.929250000000     0.371830000000    -0.251104   
O403     O      0.678950000000     0.883450000000     0.442270000000    -0.245233   
O404     O      0.728660000000     0.905860000000     0.388940000000    -0.249617   
O405     O      0.696320000000     0.878630000000     0.387510000000    -0.248363   
O406     O      0.644550000000     0.905810000000     0.431550000000    -0.249806   
O407     O      0.719880000000     0.953380000000     0.420480000000    -0.246496   
O408     O      0.658130000000     0.955760000000     0.402520000000    -0.247828   
O409     O      0.791270000000     0.530690000000     0.999620000000    -0.249764   
O410     O      0.802640000000     0.579780000000     0.066460000000    -0.248572   
O411     O      0.817660000000     0.578410000000     0.011770000000    -0.24525    
O412     O      0.841340000000     0.503190000000     0.046570000000    -0.249128   
O413     O      0.840500000000     0.530480000000     0.077150000000    -0.251346   
O414     O      0.853630000000     0.557330000000     0.020260000000    -0.250323   
O415     O      0.779200000000     0.507440000000     0.031290000000    -0.246128   
O416     O      0.773330000000     0.549580000000     0.068170000000    -0.24935    
O417     O      0.651110000000     0.674310000000     0.119820000000    -0.251355   
O418     O      0.719630000000     0.659490000000     0.127930000000    -0.251445   
O419     O      0.643470000000     0.659240000000     0.184830000000    -0.251543   
O420     O      0.711150000000     0.676610000000     0.191960000000    -0.251813   
O421     O      0.709250000000     0.706460000000     0.163800000000    -0.245999   
O422     O      0.674970000000     0.631050000000     0.184720000000    -0.246016   
O423     O      0.652010000000     0.705160000000     0.146980000000    -0.245751   
O424     O      0.690160000000     0.629370000000     0.130110000000    -0.246038   
O425     O      0.798390000000     0.832730000000     0.305040000000    -0.246282   
O426     O      0.777290000000     0.785020000000     0.242150000000    -0.251788   
O427     O      0.838340000000     0.758960000000     0.287580000000    -0.244782   
O428     O      0.816420000000     0.830540000000     0.251770000000    -0.24619    
O429     O      0.846690000000     0.801290000000     0.254520000000    -0.249097   
O430     O      0.826130000000     0.780880000000     0.320120000000    -0.250764   
O431     O      0.765440000000     0.806120000000     0.303170000000    -0.250497   
O432     O      0.778150000000     0.755220000000     0.270340000000    -0.249824   
O433     O      0.913810000000     0.921890000000     0.121200000000    -0.25122    
O434     O      0.968280000000     0.921230000000     0.197160000000    -0.250879   
O435     O      0.948990000000     0.872780000000     0.133940000000    -0.246454   
O436     O      0.931390000000     0.875980000000     0.187580000000    -0.24535    
O437     O      0.901150000000     0.905320000000     0.184980000000    -0.25093    
O438     O      0.980390000000     0.901040000000     0.132620000000    -0.250778   
O439     O      0.913760000000     0.950610000000     0.150510000000    -0.24685    
O440     O      0.972410000000     0.948500000000     0.166790000000    -0.246405   
O441     O      0.518010000000     0.552740000000     0.304450000000    -0.249929   
O442     O      0.600210000000     0.552000000000     0.257490000000    -0.25022    
O443     O      0.532410000000     0.503270000000     0.275670000000    -0.246815   
O444     O      0.585620000000     0.533150000000     0.323550000000    -0.250295   
O445     O      0.592100000000     0.506180000000     0.293330000000    -0.247353   
O446     O      0.537190000000     0.529670000000     0.244640000000    -0.251378   
O447     O      0.550310000000     0.579500000000     0.310160000000    -0.245446   
O448     O      0.568160000000     0.579570000000     0.256680000000    -0.247095   
O449     O      0.921170000000     0.628140000000     0.934690000000    -0.248324   
O450     O      0.937350000000     0.626030000000     0.879160000000    -0.248128   
O451     O      0.940470000000     0.682890000000     0.945580000000    -0.250283   
O452     O      0.906270000000     0.676610000000     0.863500000000    -0.250415   
O453     O      0.892150000000     0.697350000000     0.896040000000    -0.249509   
O454     O      0.957000000000     0.700510000000     0.912240000000    -0.248202   
O455     O      0.884650000000     0.646700000000     0.923250000000    -0.248898   
O456     O      0.970010000000     0.651800000000     0.886910000000    -0.248098   
O457     O      0.584230000000     0.749850000000     0.537710000000    -0.250066   
O458     O      0.547360000000     0.828740000000     0.547360000000    -0.248796   
O459     O      0.524490000000     0.753350000000     0.518670000000    -0.24541    
O460     O      0.600140000000     0.800160000000     0.505110000000    -0.250023   
O461     O      0.565320000000     0.821370000000     0.493300000000    -0.245932   
O462     O      0.541120000000     0.770530000000     0.485150000000    -0.249515   
O463     O      0.583470000000     0.780500000000     0.565000000000    -0.25128    
O464     O      0.516030000000     0.800420000000     0.547860000000    -0.249087   
O465     O      0.708000000000     0.930390000000     0.952390000000    -0.249568   
O466     O      0.664320000000     0.929250000000     0.871830000000    -0.251103   
O467     O      0.678950000000     0.883450000000     0.942270000000    -0.245228   
O468     O      0.728660000000     0.905860000000     0.888940000000    -0.249615   
O469     O      0.696320000000     0.878630000000     0.887510000000    -0.248362   
O470     O      0.644550000000     0.905810000000     0.931550000000    -0.249802   
O471     O      0.719880000000     0.953380000000     0.920480000000    -0.246492   
O472     O      0.658130000000     0.955760000000     0.902520000000    -0.247824   
O473     O      0.791270000000     0.530690000000     0.499620000000    -0.249884   
O474     O      0.802640000000     0.579780000000     0.566460000000    -0.248566   
O475     O      0.817660000000     0.578410000000     0.511770000000    -0.245247   
O476     O      0.841340000000     0.503190000000     0.546570000000    -0.249115   
O477     O      0.840500000000     0.530480000000     0.577150000000    -0.251345   
O478     O      0.853630000000     0.557330000000     0.520260000000    -0.250337   
O479     O      0.779200000000     0.507440000000     0.531290000000    -0.246157   
O480     O      0.773330000000     0.549580000000     0.568170000000    -0.249344   
O481     O      0.651110000000     0.674310000000     0.619820000000    -0.251352   
O482     O      0.719630000000     0.659490000000     0.627930000000    -0.251442   
O483     O      0.643470000000     0.659240000000     0.684830000000    -0.251543   
O484     O      0.711150000000     0.676610000000     0.691960000000    -0.251814   
O485     O      0.709250000000     0.706460000000     0.663800000000    -0.245997   
O486     O      0.674970000000     0.631050000000     0.684720000000    -0.246016   
O487     O      0.652010000000     0.705160000000     0.646980000000    -0.245751   
O488     O      0.690160000000     0.629370000000     0.630110000000    -0.246036   
O489     O      0.798390000000     0.832730000000     0.805040000000    -0.246281   
O490     O      0.777290000000     0.785020000000     0.742150000000    -0.251734   
O491     O      0.838340000000     0.758960000000     0.787580000000    -0.244785   
O492     O      0.816420000000     0.830540000000     0.751770000000    -0.246191   
O493     O      0.846690000000     0.801290000000     0.754520000000    -0.249099   
O494     O      0.826130000000     0.780880000000     0.820120000000    -0.250762   
O495     O      0.765440000000     0.806120000000     0.803170000000    -0.250495   
O496     O      0.778150000000     0.755220000000     0.770350000000    -0.249676   
O497     O      0.913810000000     0.921890000000     0.621200000000    -0.251216   
O498     O      0.968280000000     0.921230000000     0.697160000000    -0.25088    
O499     O      0.948990000000     0.872780000000     0.633940000000    -0.246453   
O500     O      0.931390000000     0.875980000000     0.687580000000    -0.24535    
O501     O      0.901150000000     0.905320000000     0.684980000000    -0.25093    
O502     O      0.980390000000     0.901040000000     0.632620000000    -0.250777   
O503     O      0.913760000000     0.950610000000     0.650510000000    -0.246849   
O504     O      0.972410000000     0.948500000000     0.666790000000    -0.246406   
O505     O      0.518010000000     0.552740000000     0.804450000000    -0.249928   
O506     O      0.600210000000     0.552000000000     0.757490000000    -0.250217   
O507     O      0.532410000000     0.503270000000     0.775670000000    -0.246815   
O508     O      0.585620000000     0.533150000000     0.823540000000    -0.250357   
O509     O      0.592100000000     0.506180000000     0.793330000000    -0.247363   
O510     O      0.537190000000     0.529670000000     0.744640000000    -0.251379   
O511     O      0.550310000000     0.579500000000     0.810160000000    -0.245442   
O512     O      0.568160000000     0.579570000000     0.756680000000    -0.247095   


