data_structure

_audit_creation_method RASPA-1.0
_audit_creation_date 2023-5-22
_audit_author_name 'Poobodin Mano'

_cell_length_a    34.2419
_cell_length_b    33.9779
_cell_length_c    33.8454
_cell_angle_alpha 90.0061
_cell_angle_beta  90.1213
_cell_angle_gamma 119.966
_cell_volume      34113.9

_symmetry_cell_setting          triclinic
_symmetry_space_group_name_Hall 'P 1'
_symmetry_space_group_name_H-M  'P 1'
_symmetry_Int_Tables_number     1

_symmetry_equiv_pos_as_xyz 'x,y,z'

loop_
_atom_site_label
_atom_site_type_symbol
_atom_site_fract_x
_atom_site_fract_y
_atom_site_fract_z
_atom_site_charge
C1       C      0.639900000000     0.461940000000     0.134840000000     0.339479   
C2       C      0.507870000000     0.452150000000     0.070920000000     0.339105   
C3       C      0.516440000000     0.327280000000     0.134440000000     0.33892    
C4       C      0.506980000000     0.452600000000     0.196180000000     0.339242   
C5       C      0.443740000000     0.506140000000     0.445930000000     0.33919    
C6       C      0.434080000000     0.631330000000     0.383360000000     0.338999   
C7       C      0.442680000000     0.506430000000     0.320680000000     0.339091   
C8       C      0.310710000000     0.496630000000     0.385190000000     0.339377   
C9       C      0.783180000000     0.440860000000     0.136210000000     0.338962   
C10      C      0.909980000000     0.444810000000     0.204640000000     0.338809   
C11      C      0.789830000000     0.316120000000     0.136220000000     0.338406   
C12      C      0.912070000000     0.445810000000     0.070940000000     0.338905   
C13      C      0.160610000000     0.642240000000     0.386880000000     0.338462   
C14      C      0.039150000000     0.512880000000     0.320390000000     0.338939   
C15      C      0.167340000000     0.517550000000     0.386660000000     0.338838   
C16      C      0.039760000000     0.513170000000     0.454110000000     0.338892   
C17      C      0.514870000000     0.043050000000     0.068300000000     0.338755   
C18      C      0.537900000000     0.180460000000     0.134920000000     0.339099   
C19      C      0.514930000000     0.043580000000     0.202010000000     0.338905   
C20      C      0.650380000000     0.153200000000     0.135180000000     0.340854   
C21      C      0.435840000000     0.915800000000     0.450960000000     0.338748   
C22      C      0.299950000000     0.805220000000     0.385750000000     0.340874   
C23      C      0.434940000000     0.914520000000     0.317250000000     0.338988   
C24      C      0.412460000000     0.778060000000     0.384120000000     0.339088   
C25      C      0.523950000000     0.999110000000     0.255550000000    -0.0142506  
C26      C      0.455960000000     0.009040000000     0.253410000000    -0.0141602  
C27      C      0.493730000000     0.948850000000     0.265670000000    -0.014218   
C28      C      0.425750000000     0.958790000000     0.263590000000    -0.0144168  
C29      C      0.457510000000     0.010760000000     0.515330000000    -0.0142066  
C30      C      0.523830000000     0.998180000000     0.015190000000    -0.0142282  
C31      C      0.427060000000     0.960910000000     0.503930000000    -0.0141735  
C32      C      0.493400000000     0.948310000000     0.003750000000    -0.0141597  
C33      C      0.228980000000     0.761670000000     0.423120000000    -0.0124841  
C34      C      0.227480000000     0.761510000000     0.350180000000    -0.0125507  
C35      C      0.212050000000     0.710660000000     0.424510000000    -0.014986   
C36      C      0.210460000000     0.710490000000     0.348550000000    -0.0149914  
C37      C      0.722150000000     0.196490000000     0.171820000000    -0.0126012  
C38      C      0.722080000000     0.197080000000     0.098860000000    -0.0125368  
C39      C      0.739150000000     0.247490000000     0.173730000000    -0.0150122  
C40      C      0.739130000000     0.248120000000     0.097750000000    -0.0150334  
C41      C      0.948340000000     0.502200000000     0.257260000000    -0.0142388  
C42      C      0.949810000000     0.428990000000     0.257970000000    -0.0141278  
C43      C      0.998570000000     0.528370000000     0.267540000000    -0.0141099  
C44      C      0.000050000000     0.455090000000     0.268240000000    -0.0143407  
C45      C      0.002610000000     0.456270000000     0.007260000000    -0.0141974  
C46      C      0.999900000000     0.528990000000     0.507160000000    -0.0139687  
C47      C      0.952670000000     0.430320000000     0.018380000000    -0.0141405  
C48      C      0.949960000000     0.503090000000     0.518250000000    -0.0142572  
C49      C      0.418330000000     0.718730000000     0.421430000000    -0.0146796  
C50      C      0.415710000000     0.717480000000     0.346480000000    -0.0146001  
C51      C      0.452140000000     0.701750000000     0.419880000000    -0.0136346  
C52      C      0.449630000000     0.700610000000     0.346290000000    -0.0136499  
C53      C      0.221500000000     0.505450000000     0.348380000000    -0.0147502  
C54      C      0.223160000000     0.506820000000     0.423900000000    -0.0148244  
C55      C      0.238810000000     0.471780000000     0.349570000000    -0.0131629  
C56      C      0.240460000000     0.473140000000     0.422790000000    -0.0130743  
C57      C      0.711210000000     0.486040000000     0.098770000000    -0.0131385  
C58      C      0.710730000000     0.486050000000     0.172000000000    -0.0131224  
C59      C      0.728500000000     0.452340000000     0.097900000000    -0.0147429  
C60      C      0.727960000000     0.452320000000     0.173420000000    -0.0147622  
C61      C      0.533390000000     0.240520000000     0.172260000000    -0.0146012  
C62      C      0.533420000000     0.240360000000     0.097290000000    -0.0145146  
C63      C      0.499570000000     0.257520000000     0.171420000000    -0.0137232  
C64      C      0.499550000000     0.257280000000     0.097800000000    -0.0136998  
C65      C      0.438760000000     0.442660000000     0.485450000000    -0.0138934  
C66      C      0.509570000000     0.519000000000     0.485950000000    -0.0139764  
C67      C      0.442470000000     0.439050000000     0.030210000000    -0.014015   
C68      C      0.513390000000     0.515430000000     0.030740000000    -0.0140572  
C69      C      0.508310000000     0.518880000000     0.280950000000    -0.0139734  
C70      C      0.436530000000     0.443250000000     0.279900000000    -0.0140943  
C71      C      0.512600000000     0.516010000000     0.236280000000    -0.0139417  
C72      C      0.440940000000     0.440410000000     0.235230000000    -0.0139341  
C73      C      0.639860000000     0.462160000000     0.634760000000     0.339326   
C74      C      0.507780000000     0.452310000000     0.570830000000     0.339261   
C75      C      0.516470000000     0.327460000000     0.634270000000     0.338952   
C76      C      0.506940000000     0.452690000000     0.696090000000     0.339174   
C77      C      0.443840000000     0.505980000000     0.946020000000     0.339222   
C78      C      0.434070000000     0.631150000000     0.883500000000     0.33904    
C79      C      0.442720000000     0.506330000000     0.820760000000     0.339218   
C80      C      0.310760000000     0.496410000000     0.885320000000     0.339434   
C81      C      0.783100000000     0.441070000000     0.636210000000     0.338817   
C82      C      0.910160000000     0.445040000000     0.704470000000     0.338992   
C83      C      0.789740000000     0.316320000000     0.636590000000     0.338665   
C84      C      0.911370000000     0.445630000000     0.570530000000     0.338966   
C85      C      0.160700000000     0.642050000000     0.886520000000     0.338652   
C86      C      0.039020000000     0.512690000000     0.820570000000     0.338937   
C87      C      0.167430000000     0.517350000000     0.886710000000     0.339035   
C88      C      0.040450000000     0.513340000000     0.954520000000     0.339147   
C89      C      0.515410000000     0.043910000000     0.567940000000     0.338782   
C90      C      0.538050000000     0.180700000000     0.634940000000     0.339199   
C91      C      0.514870000000     0.043500000000     0.701880000000     0.338967   
C92      C      0.650480000000     0.153390000000     0.635790000000     0.340848   
C93      C      0.435310000000     0.914930000000     0.951310000000     0.338787   
C94      C      0.299860000000     0.805040000000     0.885140000000     0.340865   
C95      C      0.435030000000     0.914620000000     0.817370000000     0.338933   
C96      C      0.412340000000     0.777820000000     0.884070000000     0.339227   
C97      C      0.523940000000     0.999050000000     0.755400000000    -0.0142922  
C98      C      0.455990000000     0.009060000000     0.753360000000    -0.0141891  
C99      C      0.493720000000     0.948850000000     0.765720000000    -0.014179   
C100     C      0.425790000000     0.958860000000     0.763740000000    -0.0142869  
C101     C      0.456520000000     0.009220000000     0.016140000000    -0.0140545  
C102     C      0.524810000000     0.999660000000     0.514470000000    -0.0142058  
C103     C      0.426070000000     0.959370000000     0.004680000000    -0.014162   
C104     C      0.494360000000     0.949820000000     0.502970000000    -0.0141417  
C105     C      0.228640000000     0.761740000000     0.922210000000    -0.0124835  
C106     C      0.227650000000     0.761060000000     0.849270000000    -0.0124505  
C107     C      0.211790000000     0.710770000000     0.923970000000    -0.0149438  
C108     C      0.210750000000     0.710060000000     0.848000000000    -0.0150403  
C109     C      0.721970000000     0.196940000000     0.672740000000    -0.0124242  
C110     C      0.722430000000     0.197000000000     0.599790000000    -0.0125534  
C111     C      0.738860000000     0.247930000000     0.674290000000    -0.0150725  
C112     C      0.739400000000     0.248010000000     0.598310000000    -0.015019   
C113     C      0.948470000000     0.502320000000     0.757160000000    -0.0142609  
C114     C      0.949800000000     0.429020000000     0.757820000000    -0.0142931  
C115     C      0.998640000000     0.528360000000     0.767690000000    -0.0140071  
C116     C      0.999970000000     0.455010000000     0.768340000000    -0.0140537  
C117     C      0.001290000000     0.455740000000     0.506430000000    -0.014117   
C118     C      0.001230000000     0.529540000000     0.007940000000    -0.0141955  
C119     C      0.951350000000     0.429760000000     0.517600000000    -0.0142246  
C120     C      0.951300000000     0.503630000000     0.019100000000    -0.0139793  
C121     C      0.418040000000     0.718420000000     0.921420000000    -0.0145628  
C122     C      0.415790000000     0.717310000000     0.846470000000    -0.0146183  
C123     C      0.451910000000     0.701510000000     0.920020000000    -0.0137525  
C124     C      0.449730000000     0.700480000000     0.846420000000    -0.0136597  
C125     C      0.221510000000     0.505110000000     0.848450000000    -0.0147899  
C126     C      0.223280000000     0.506700000000     0.923970000000    -0.0147539  
C127     C      0.238830000000     0.471440000000     0.849730000000    -0.0130802  
C128     C      0.240540000000     0.472980000000     0.922940000000    -0.013106   
C129     C      0.711180000000     0.486260000000     0.598710000000    -0.0131222  
C130     C      0.710690000000     0.486340000000     0.671940000000    -0.0131393  
C131     C      0.728420000000     0.452530000000     0.597870000000    -0.0148152  
C132     C      0.727920000000     0.452610000000     0.673400000000    -0.0147457  
C133     C      0.533250000000     0.240640000000     0.672240000000    -0.014616   
C134     C      0.533810000000     0.240720000000     0.597270000000    -0.0145219  
C135     C      0.499420000000     0.257620000000     0.671200000000    -0.0136776  
C136     C      0.499890000000     0.257580000000     0.597580000000    -0.013757   
C137     C      0.438900000000     0.442490000000     0.985500000000    -0.0139098  
C138     C      0.509670000000     0.518850000000     0.986030000000    -0.0139155  
C139     C      0.442360000000     0.439230000000     0.530160000000    -0.0140586  
C140     C      0.513290000000     0.515590000000     0.530660000000    -0.0139592  
C141     C      0.508350000000     0.518820000000     0.780980000000    -0.0139998  
C142     C      0.436550000000     0.443210000000     0.779880000000    -0.0140541  
C143     C      0.512590000000     0.516050000000     0.736290000000    -0.0139753  
C144     C      0.440920000000     0.440460000000     0.735190000000    -0.0139615  
Cd1      Cd     0.543330000000     0.422510000000     0.134160000000     0.509683   
Cd2      Cd     0.407280000000     0.536120000000     0.383790000000     0.509687   
Cd3      Cd     0.850420000000     0.413090000000     0.136940000000     0.508509   
Cd4      Cd     0.100070000000     0.545260000000     0.387150000000     0.508505   
Cd5      Cd     0.553110000000     0.103840000000     0.135070000000     0.50793    
Cd6      Cd     0.397200000000     0.854640000000     0.384480000000     0.507942   
Cd7      Cd     0.543280000000     0.422670000000     0.634030000000     0.509713   
Cd8      Cd     0.407330000000     0.535960000000     0.883910000000     0.509684   
Cd9      Cd     0.850330000000     0.413280000000     0.636950000000     0.50853    
Cd10     Cd     0.100170000000     0.545080000000     0.887170000000     0.508544   
Cd11     Cd     0.553220000000     0.104060000000     0.635160000000     0.507935   
Cd12     Cd     0.397110000000     0.854420000000     0.884380000000     0.507942   
H1       H      0.464500000000     0.028990000000     0.281300000000     0.050231   
H2       H      0.537230000000     0.018320000000     0.283620000000     0.0502584  
H3       H      0.512970000000     0.937760000000     0.284670000000     0.0542241  
H4       H      0.436710000000     0.020070000000     0.234350000000     0.0542018  
H5       H      0.396560000000     0.954770000000     0.281100000000     0.0546033  
H6       H      0.412450000000     0.939540000000     0.235540000000     0.0502414  
H7       H      0.553160000000     0.003120000000     0.238060000000     0.0545625  
H8       H      0.485140000000     0.928950000000     0.237750000000     0.0501986  
H9       H      0.538200000000     0.018130000000     0.987690000000     0.0502866  
H10      H      0.467090000000     0.031470000000     0.487880000000     0.0501866  
H11      H      0.398590000000     0.957880000000     0.485760000000     0.0544495  
H12      H      0.552300000000     0.001220000000     0.033350000000     0.0544681  
H13      H      0.514100000000     0.939730000000     0.483620000000     0.0541159  
H14      H      0.483890000000     0.927570000000     0.031180000000     0.0502406  
H15      H      0.436780000000     0.019360000000     0.035430000000     0.0540948  
H16      H      0.412670000000     0.940980000000     0.531440000000     0.0503397  
H17      H      0.197750000000     0.766490000000     0.350880000000     0.0466645  
H18      H      0.199230000000     0.766630000000     0.423560000000     0.0466218  
H19      H      0.188010000000     0.695690000000     0.449530000000     0.0540543  
H20      H      0.247100000000     0.778120000000     0.323060000000     0.0536325  
H21      H      0.185400000000     0.695410000000     0.324170000000     0.0540846  
H22      H      0.239260000000     0.705430000000     0.341030000000     0.0539113  
H23      H      0.249690000000     0.778410000000     0.449800000000     0.0535411  
H24      H      0.241140000000     0.705640000000     0.430900000000     0.0539043  
H25      H      0.751790000000     0.192050000000     0.098860000000     0.0466535  
H26      H      0.751870000000     0.191500000000     0.171550000000     0.046689   
H27      H      0.763710000000     0.262300000000     0.198500000000     0.0541064  
H28      H      0.701880000000     0.180640000000     0.071880000000     0.0535805  
H29      H      0.763680000000     0.263330000000     0.073130000000     0.0540726  
H30      H      0.710210000000     0.253270000000     0.090910000000     0.0538931  
H31      H      0.702000000000     0.179600000000     0.198630000000     0.0536393  
H32      H      0.710220000000     0.252500000000     0.180790000000     0.0539622  
H33      H      0.930440000000     0.416720000000     0.285940000000     0.0500817  
H34      H      0.928860000000     0.494860000000     0.285180000000     0.0501229  
H35      H      0.005630000000     0.558540000000     0.285620000000     0.0542625  
H36      H      0.942670000000     0.398720000000     0.239990000000     0.0543108  
H37      H      0.008150000000     0.433120000000     0.286820000000     0.0542575  
H38      H      0.019530000000     0.462290000000     0.240330000000     0.0502805  
H39      H      0.940160000000     0.524170000000     0.238760000000     0.0542644  
H40      H      0.017950000000     0.540780000000     0.239580000000     0.0501988  
H41      H      0.020040000000     0.541710000000     0.534800000000     0.0500881  
H42      H      0.022860000000     0.463920000000     0.034840000000     0.0500821  
H43      H      0.946130000000     0.400440000000     0.036630000000     0.054238   
H44      H      0.006540000000     0.558970000000     0.489010000000     0.0541647  
H45      H      0.944540000000     0.526100000000     0.038320000000     0.054056   
H46      H      0.929730000000     0.495570000000     0.490670000000     0.0502783  
H47      H      0.008150000000     0.433290000000     0.487310000000     0.0540672  
H48      H      0.932510000000     0.417440000000     0.990770000000     0.0503122  
H49      H      0.381270000000     0.687620000000     0.343200000000     0.0506851  
H50      H      0.384160000000     0.689060000000     0.426400000000     0.0507082  
H51      H      0.448390000000     0.681380000000     0.446770000000     0.0541577  
H52      H      0.422170000000     0.739740000000     0.320370000000     0.0542694  
H53      H      0.444100000000     0.679440000000     0.319550000000     0.0541005  
H54      H      0.484100000000     0.730710000000     0.344450000000     0.0489954  
H55      H      0.426660000000     0.741900000000     0.447200000000     0.0543349  
H56      H      0.486700000000     0.731840000000     0.420130000000     0.0490066  
H57      H      0.252310000000     0.541450000000     0.428980000000     0.0522105  
H58      H      0.250420000000     0.539870000000     0.342170000000     0.0522375  
H59      H      0.258570000000     0.475480000000     0.322420000000     0.0539663  
H60      H      0.200060000000     0.498380000000     0.449540000000     0.054221   
H61      H      0.261440000000     0.477860000000     0.449420000000     0.0538617  
H62      H      0.210870000000     0.438160000000     0.423710000000     0.0476633  
H63      H      0.197300000000     0.496100000000     0.323380000000     0.0542214  
H64      H      0.209190000000     0.436800000000     0.349840000000     0.047706   
H65      H      0.740370000000     0.521020000000     0.172470000000     0.0476973  
H66      H      0.740840000000     0.521020000000     0.098590000000     0.0476965  
H67      H      0.752330000000     0.461230000000     0.072770000000     0.0542151  
H68      H      0.690200000000     0.481870000000     0.198730000000     0.0539228  
H69      H      0.751420000000     0.461180000000     0.198940000000     0.0542257  
H70      H      0.698840000000     0.417810000000     0.178900000000     0.0522262  
H71      H      0.691020000000     0.481830000000     0.071710000000     0.0539195  
H72      H      0.699480000000     0.417820000000     0.092090000000     0.0522026  
H73      H      0.567750000000     0.270120000000     0.093220000000     0.0506862  
H74      H      0.567730000000     0.270260000000     0.176460000000     0.0506608  
H75      H      0.504270000000     0.278410000000     0.198190000000     0.0541292  
H76      H      0.526020000000     0.217590000000     0.071350000000     0.0542795  
H77      H      0.504180000000     0.277970000000     0.070930000000     0.0541748  
H78      H      0.465010000000     0.227190000000     0.096740000000     0.0490233  
H79      H      0.525930000000     0.217840000000     0.198230000000     0.0542678  
H80      H      0.465020000000     0.227470000000     0.172440000000     0.0490158  
H81      H      0.530510000000     0.506550000000     0.471490000000     0.0499074  
H82      H      0.454860000000     0.424940000000     0.471020000000     0.0498707  
H83      H      0.428350000000     0.402720000000     0.038270000000     0.054512   
H84      H      0.523740000000     0.555320000000     0.477840000000     0.054493   
H85      H      0.549640000000     0.533340000000     0.039140000000     0.0545429  
H86      H      0.497540000000     0.533340000000     0.045230000000     0.0500845  
H87      H      0.402540000000     0.424570000000     0.476940000000     0.0544894  
H88      H      0.421400000000     0.451380000000     0.044600000000     0.0501344  
H89      H      0.451540000000     0.424560000000     0.294500000000     0.0500939  
H90      H      0.528620000000     0.505740000000     0.295570000000     0.0500884  
H91      H      0.548960000000     0.533610000000     0.228420000000     0.0545334  
H92      H      0.400150000000     0.425830000000     0.287640000000     0.0545707  
H93      H      0.426290000000     0.404130000000     0.226680000000     0.0544261  
H94      H      0.420750000000     0.453650000000     0.220560000000     0.0498893  
H95      H      0.522920000000     0.555160000000     0.289460000000     0.0544498  
H96      H      0.497330000000     0.534490000000     0.221730000000     0.0499113  
H97      H      0.464650000000     0.029150000000     0.781180000000     0.0502626  
H98      H      0.537380000000     0.018390000000     0.783390000000     0.0502899  
H99      H      0.513020000000     0.937830000000     0.784720000000     0.0542164  
H100     H      0.436690000000     0.020020000000     0.734290000000     0.0542187  
H101     H      0.396690000000     0.954990000000     0.781330000000     0.0545543  
H102     H      0.412330000000     0.939490000000     0.735770000000     0.0502357  
H103     H      0.553050000000     0.002930000000     0.737830000000     0.0545679  
H104     H      0.485010000000     0.928810000000     0.737880000000     0.0502221  
H105     H      0.539260000000     0.019670000000     0.487000000000     0.0500917  
H106     H      0.465930000000     0.030630000000     0.989120000000     0.0501201  
H107     H      0.397640000000     0.956380000000     0.986480000000     0.0544829  
H108     H      0.553220000000     0.002650000000     0.532680000000     0.0545168  
H109     H      0.512870000000     0.937460000000     0.984870000000     0.0542097  
H110     H      0.484980000000     0.928380000000     0.529960000000     0.0502217  
H111     H      0.438050000000     0.021690000000     0.534150000000     0.0542141  
H112     H      0.411630000000     0.939400000000     0.032160000000     0.0501344  
H113     H      0.197870000000     0.765970000000     0.849600000000     0.0466276  
H114     H      0.198850000000     0.766640000000     0.922270000000     0.0466113  
H115     H      0.187580000000     0.695940000000     0.948890000000     0.0540489  
H116     H      0.247440000000     0.777510000000     0.822180000000     0.0535909  
H117     H      0.185860000000     0.694760000000     0.823510000000     0.0540845  
H118     H      0.239640000000     0.705020000000     0.840850000000     0.0539312  
H119     H      0.249150000000     0.778710000000     0.948940000000     0.0535211  
H120     H      0.240880000000     0.705870000000     0.930730000000     0.0539197  
H121     H      0.752180000000     0.192040000000     0.600180000000     0.0466532  
H122     H      0.751750000000     0.192020000000     0.672860000000     0.0466212  
H123     H      0.763240000000     0.262950000000     0.699170000000     0.054112   
H124     H      0.702430000000     0.180340000000     0.572770000000     0.0535837  
H125     H      0.764130000000     0.263080000000     0.573800000000     0.0540728  
H126     H      0.710490000000     0.253040000000     0.591090000000     0.0539089  
H127     H      0.701650000000     0.180210000000     0.699520000000     0.0535681  
H128     H      0.709840000000     0.252910000000     0.680980000000     0.0539757  
H129     H      0.930240000000     0.416660000000     0.785700000000     0.0501402  
H130     H      0.928820000000     0.494920000000     0.784990000000     0.0501525  
H131     H      0.005620000000     0.558480000000     0.785830000000     0.0542087  
H132     H      0.942720000000     0.398820000000     0.739780000000     0.0543516  
H133     H      0.007890000000     0.432930000000     0.786950000000     0.0541801  
H134     H      0.019620000000     0.462270000000     0.740530000000     0.0502283  
H135     H      0.940470000000     0.524400000000     0.738630000000     0.0542693  
H136     H      0.018200000000     0.540880000000     0.739830000000     0.0501845  
H137     H      0.021430000000     0.542330000000     0.035540000000     0.0499617  
H138     H      0.022150000000     0.463150000000     0.533600000000     0.0500285  
H139     H      0.944850000000     0.399930000000     0.535890000000     0.0543122  
H140     H      0.007820000000     0.559480000000     0.989760000000     0.0542644  
H141     H      0.942430000000     0.525350000000     0.536980000000     0.0542232  
H142     H      0.930440000000     0.496370000000     0.991950000000     0.0501778  
H143     H      0.010200000000     0.434010000000     0.988590000000     0.054169   
H144     H      0.931150000000     0.416820000000     0.490010000000     0.0501502  
H145     H      0.381370000000     0.687450000000     0.843070000000     0.0506811  
H146     H      0.383860000000     0.688700000000     0.926260000000     0.0506652  
H147     H      0.448060000000     0.681110000000     0.946910000000     0.0541784  
H148     H      0.422360000000     0.739630000000     0.820380000000     0.0542804  
H149     H      0.444330000000     0.679340000000     0.819680000000     0.0541126  
H150     H      0.484200000000     0.730580000000     0.844690000000     0.0490075  
H151     H      0.426210000000     0.741520000000     0.947220000000     0.0542899  
H152     H      0.486450000000     0.731620000000     0.920370000000     0.0490416  
H153     H      0.252460000000     0.541340000000     0.928980000000     0.0521901  
H154     H      0.250430000000     0.539510000000     0.842160000000     0.0522496  
H155     H      0.258570000000     0.475080000000     0.822570000000     0.0539409  
H156     H      0.200220000000     0.498350000000     0.949630000000     0.0541771  
H157     H      0.261530000000     0.477750000000     0.949560000000     0.0538695  
H158     H      0.210930000000     0.438010000000     0.923920000000     0.0476572  
H159     H      0.197270000000     0.495680000000     0.823480000000     0.0542434  
H160     H      0.209210000000     0.436460000000     0.850050000000     0.0476764  
H161     H      0.740330000000     0.521310000000     0.672390000000     0.0476959  
H162     H      0.740820000000     0.521230000000     0.598520000000     0.0476874  
H163     H      0.752240000000     0.461370000000     0.572740000000     0.0542135  
H164     H      0.690150000000     0.482180000000     0.698660000000     0.0539241  
H165     H      0.751400000000     0.461510000000     0.698910000000     0.0542195  
H166     H      0.698810000000     0.418110000000     0.678920000000     0.0522262  
H167     H      0.690990000000     0.482050000000     0.571650000000     0.0539117  
H168     H      0.699380000000     0.418010000000     0.592100000000     0.0522266  
H169     H      0.568150000000     0.270530000000     0.593400000000     0.0506818  
H170     H      0.567560000000     0.270390000000     0.676610000000     0.0506606  
H171     H      0.503930000000     0.278430000000     0.697980000000     0.0541145  
H172     H      0.526640000000     0.218050000000     0.571300000000     0.0542721  
H173     H      0.504660000000     0.278320000000     0.570730000000     0.0541811  
H174     H      0.465380000000     0.227450000000     0.596360000000     0.0490355  
H175     H      0.525630000000     0.217880000000     0.698180000000     0.0542836  
H176     H      0.464870000000     0.227550000000     0.672060000000     0.0490036  
H177     H      0.530630000000     0.506420000000     0.971570000000     0.0498921  
H178     H      0.455020000000     0.424800000000     0.971070000000     0.0498811  
H179     H      0.428220000000     0.402910000000     0.538230000000     0.0545081  
H180     H      0.523840000000     0.555170000000     0.977930000000     0.0544649  
H181     H      0.549550000000     0.533500000000     0.539050000000     0.0545141  
H182     H      0.497450000000     0.533520000000     0.545150000000     0.0500525  
H183     H      0.402680000000     0.424380000000     0.976970000000     0.05449    
H184     H      0.421320000000     0.451590000000     0.544560000000     0.0501399  
H185     H      0.451560000000     0.424480000000     0.794400000000     0.0500962  
H186     H      0.528650000000     0.505630000000     0.795530000000     0.0501088  
H187     H      0.548940000000     0.533660000000     0.728410000000     0.05455    
H188     H      0.400170000000     0.425790000000     0.787640000000     0.0545749  
H189     H      0.426250000000     0.404210000000     0.726580000000     0.0544478  
H190     H      0.420730000000     0.453750000000     0.720590000000     0.0498945  
H191     H      0.522970000000     0.555090000000     0.789560000000     0.0544627  
H192     H      0.497320000000     0.534570000000     0.721830000000     0.0499196  
N1       N      0.451730000000     0.941220000000     0.284410000000    -0.150823   
N2       N      0.498010000000     0.016710000000     0.234740000000    -0.150834   
N3       N      0.453030000000     0.943220000000     0.483420000000    -0.150839   
N4       N      0.497810000000     0.015800000000     0.035720000000    -0.150821   
N5       N      0.191240000000     0.687710000000     0.386700000000    -0.150622   
N6       N      0.253990000000     0.780050000000     0.386350000000    -0.151704   
N7       N      0.759170000000     0.270660000000     0.135890000000    -0.150605   
N8       N      0.696340000000     0.178340000000     0.135250000000    -0.151715   
N9       N      0.012050000000     0.498520000000     0.287640000000    -0.15084    
N10      N      0.936490000000     0.458880000000     0.237750000000    -0.150827   
N11      N      0.939710000000     0.460440000000     0.038670000000    -0.150913   
N12      N      0.012720000000     0.498830000000     0.486770000000    -0.150945   
N13      N      0.445620000000     0.676090000000     0.383170000000    -0.151177   
N14      N      0.417880000000     0.740800000000     0.383950000000    -0.151036   
N15      N      0.265120000000     0.479260000000     0.385840000000    -0.151372   
N16      N      0.200990000000     0.506980000000     0.386370000000    -0.150852   
N17      N      0.749560000000     0.451460000000     0.135860000000    -0.150923   
N18      N      0.685490000000     0.479270000000     0.135180000000    -0.151384   
N19      N      0.504850000000     0.282510000000     0.134550000000    -0.151162   
N20      N      0.532510000000     0.217730000000     0.134820000000    -0.151105   
N21      N      0.489500000000     0.467570000000     0.043390000000    -0.15121    
N22      N      0.462480000000     0.490550000000     0.472940000000    -0.151266   
N23      N      0.488340000000     0.468330000000     0.223090000000    -0.151259   
N24      N      0.460970000000     0.490900000000     0.293240000000    -0.151194   
N25      N      0.451810000000     0.941340000000     0.784540000000    -0.150824   
N26      N      0.497950000000     0.016610000000     0.734600000000    -0.150817   
N27      N      0.452060000000     0.941680000000     0.984220000000    -0.150699   
N28      N      0.498800000000     0.017330000000     0.534930000000    -0.150718   
N29      N      0.191290000000     0.687530000000     0.886190000000    -0.150648   
N30      N      0.253900000000     0.779890000000     0.885510000000    -0.151737   
N31      N      0.759130000000     0.270850000000     0.636420000000    -0.150653   
N32      N      0.696440000000     0.178500000000     0.636100000000    -0.151743   
N33      N      0.011940000000     0.498390000000     0.787820000000    -0.150939   
N34      N      0.936660000000     0.459050000000     0.737580000000    -0.150854   
N35      N      0.938350000000     0.459890000000     0.537820000000    -0.150737   
N36      N      0.014060000000     0.499370000000     0.987590000000    -0.150841   
N37      N      0.445580000000     0.675900000000     0.883300000000    -0.15117    
N38      N      0.417770000000     0.740560000000     0.883940000000    -0.151052   
N39      N      0.265170000000     0.479010000000     0.885990000000    -0.151401   
N40      N      0.201070000000     0.506760000000     0.886440000000    -0.150878   
N41      N      0.749490000000     0.451690000000     0.635850000000    -0.150882   
N42      N      0.685460000000     0.479530000000     0.635110000000    -0.15135    
N43      N      0.504920000000     0.282690000000     0.634350000000    -0.151126   
N44      N      0.532660000000     0.217980000000     0.634800000000    -0.15107    
N45      N      0.489400000000     0.467740000000     0.543320000000    -0.151252   
N46      N      0.462600000000     0.490380000000     0.973000000000    -0.151283   
N47      N      0.488310000000     0.468390000000     0.723040000000    -0.151224   
N48      N      0.461000000000     0.490830000000     0.793290000000    -0.151233   
O1       O      0.546890000000     0.477420000000     0.085030000000    -0.247731   
O2       O      0.485220000000     0.412850000000     0.182000000000    -0.247996   
O3       O      0.617730000000     0.453030000000     0.102890000000    -0.248105   
O4       O      0.522490000000     0.349190000000     0.102620000000    -0.248311   
O5       O      0.522300000000     0.349380000000     0.166160000000    -0.248339   
O6       O      0.617320000000     0.452990000000     0.166460000000    -0.248063   
O7       O      0.486230000000     0.412290000000     0.084790000000    -0.247751   
O8       O      0.546440000000     0.477470000000     0.182990000000    -0.247801   
O9       O      0.429200000000     0.609800000000     0.415220000000    -0.248117   
O10      O      0.332370000000     0.504960000000     0.353080000000    -0.247764   
O11      O      0.465100000000     0.546160000000     0.432360000000    -0.247622   
O12      O      0.403320000000     0.481510000000     0.334090000000    -0.247451   
O13      O      0.464700000000     0.546010000000     0.335150000000    -0.248161   
O14      O      0.404590000000     0.480910000000     0.432070000000    -0.248043   
O15      O      0.427090000000     0.608860000000     0.351710000000    -0.248618   
O16      O      0.333810000000     0.506190000000     0.416640000000    -0.248274   
O17      O      0.895870000000     0.468960000000     0.188380000000    -0.247668   
O18      O      0.897470000000     0.469710000000     0.086790000000    -0.248008   
O19      O      0.798880000000     0.434880000000     0.168090000000    -0.248085   
O20      O      0.804200000000     0.338290000000     0.168110000000    -0.247341   
O21      O      0.804250000000     0.338820000000     0.104650000000    -0.247455   
O22      O      0.799390000000     0.434970000000     0.104670000000    -0.248108   
O23      O      0.897360000000     0.406480000000     0.188910000000    -0.247508   
O24      O      0.898940000000     0.407230000000     0.086300000000    -0.247837   
O25      O      0.052110000000     0.551380000000     0.335900000000    -0.247538   
O26      O      0.054090000000     0.489140000000     0.438050000000    -0.248035   
O27      O      0.145580000000     0.619730000000     0.355220000000    -0.247302   
O28      O      0.152030000000     0.524000000000     0.418500000000    -0.248112   
O29      O      0.150730000000     0.522950000000     0.355080000000    -0.248059   
O30      O      0.146870000000     0.619880000000     0.418670000000    -0.24754    
O31      O      0.053540000000     0.488880000000     0.336450000000    -0.24777    
O32      O      0.052540000000     0.551580000000     0.438540000000    -0.247868   
O33      O      0.541050000000     0.162540000000     0.166650000000    -0.248677   
O34      O      0.627890000000     0.141330000000     0.166880000000    -0.247634   
O35      O      0.494790000000     0.061640000000     0.084400000000    -0.247871   
O36      O      0.494590000000     0.061640000000     0.185380000000    -0.247893   
O37      O      0.552340000000     0.052610000000     0.187030000000    -0.247033   
O38      O      0.552070000000     0.051800000000     0.083730000000    -0.247258   
O39      O      0.541070000000     0.162430000000     0.103270000000    -0.248562   
O40      O      0.627810000000     0.141710000000     0.103400000000    -0.247706   
O41      O      0.323110000000     0.816860000000     0.417180000000    -0.248026   
O42      O      0.408100000000     0.795420000000     0.352520000000    -0.248818   
O43      O      0.455760000000     0.896980000000     0.434960000000    -0.247567   
O44      O      0.397540000000     0.905450000000     0.332270000000    -0.24701    
O45      O      0.455440000000     0.896680000000     0.333970000000    -0.248158   
O46      O      0.398650000000     0.907090000000     0.435550000000    -0.247384   
O47      O      0.321830000000     0.816980000000     0.353710000000    -0.247399   
O48      O      0.410490000000     0.796620000000     0.415880000000    -0.248435   
O49      O      0.546810000000     0.477580000000     0.584920000000    -0.247801   
O50      O      0.485170000000     0.412960000000     0.681880000000    -0.247981   
O51      O      0.617690000000     0.453230000000     0.602800000000    -0.248014   
O52      O      0.522670000000     0.349430000000     0.602460000000    -0.248345   
O53      O      0.522150000000     0.349490000000     0.665990000000    -0.248393   
O54      O      0.617260000000     0.453190000000     0.666370000000    -0.247999   
O55      O      0.486150000000     0.412460000000     0.584700000000    -0.247901   
O56      O      0.546410000000     0.477580000000     0.682910000000    -0.247737   
O57      O      0.429100000000     0.609600000000     0.915350000000    -0.248245   
O58      O      0.332400000000     0.504710000000     0.853210000000    -0.247825   
O59      O      0.465180000000     0.546010000000     0.932470000000    -0.247638   
O60      O      0.403370000000     0.481410000000     0.834160000000    -0.247544   
O61      O      0.464760000000     0.545890000000     0.835280000000    -0.248145   
O62      O      0.404700000000     0.480730000000     0.932150000000    -0.248072   
O63      O      0.427200000000     0.608720000000     0.851830000000    -0.248552   
O64      O      0.333880000000     0.506040000000     0.916770000000    -0.248275   
O65      O      0.896070000000     0.469220000000     0.688250000000    -0.24781    
O66      O      0.897040000000     0.469690000000     0.586530000000    -0.247931   
O67      O      0.798870000000     0.435190000000     0.668090000000    -0.248027   
O68      O      0.803860000000     0.338710000000     0.668400000000    -0.247473   
O69      O      0.804380000000     0.338790000000     0.604950000000    -0.24751    
O70      O      0.799240000000     0.435060000000     0.604670000000    -0.248065   
O71      O      0.897470000000     0.406700000000     0.688730000000    -0.247682   
O72      O      0.898380000000     0.407140000000     0.586000000000    -0.247738   
O73      O      0.052040000000     0.551190000000     0.836110000000    -0.247655   
O74      O      0.054510000000     0.489160000000     0.938320000000    -0.248085   
O75      O      0.145920000000     0.619320000000     0.854950000000    -0.247501   
O76      O      0.152220000000     0.523970000000     0.918530000000    -0.248253   
O77      O      0.150730000000     0.522590000000     0.855130000000    -0.248138   
O78      O      0.146750000000     0.619920000000     0.918400000000    -0.247471   
O79      O      0.053380000000     0.488640000000     0.836600000000    -0.247747   
O80      O      0.053110000000     0.551670000000     0.938850000000    -0.24781    
O81      O      0.540900000000     0.162640000000     0.666690000000    -0.248678   
O82      O      0.627760000000     0.141780000000     0.667380000000    -0.247664   
O83      O      0.495160000000     0.062230000000     0.584200000000    -0.247862   
O84      O      0.494570000000     0.061650000000     0.685320000000    -0.247867   
O85      O      0.552260000000     0.052520000000     0.686880000000    -0.247246   
O86      O      0.552510000000     0.052510000000     0.583500000000    -0.247043   
O87      O      0.541490000000     0.162820000000     0.603310000000    -0.248716   
O88      O      0.628140000000     0.141660000000     0.603900000000    -0.247659   
O89      O      0.322810000000     0.816900000000     0.916690000000    -0.247891   
O90      O      0.408200000000     0.795290000000     0.852460000000    -0.248875   
O91      O      0.455420000000     0.896420000000     0.935140000000    -0.247642   
O92      O      0.397640000000     0.905560000000     0.832410000000    -0.247119   
O93      O      0.455490000000     0.896690000000     0.834020000000    -0.248115   
O94      O      0.398200000000     0.906350000000     0.935790000000    -0.247148   
O95      O      0.321960000000     0.816540000000     0.853210000000    -0.247481   
O96      O      0.410160000000     0.796270000000     0.915820000000    -0.248552   


