data_structure

_audit_creation_method RASPA-1.0
_audit_creation_date 2023-5-22
_audit_author_name 'Poobodin Mano'

_cell_length_a    25.165
_cell_length_b    26.0306
_cell_length_c    41.4164
_cell_angle_alpha 90
_cell_angle_beta  89.9379
_cell_angle_gamma 89.9154
_cell_volume      27130.2

_symmetry_cell_setting          triclinic
_symmetry_space_group_name_Hall 'P 1'
_symmetry_space_group_name_H-M  'P 1'
_symmetry_Int_Tables_number     1

_symmetry_equiv_pos_as_xyz 'x,y,z'

loop_
_atom_site_label
_atom_site_type_symbol
_atom_site_fract_x
_atom_site_fract_y
_atom_site_fract_z
_atom_site_charge
C1       C      0.929090000000     0.329240000000     0.350900000000     0.339989   
C2       C      0.074820000000     0.229500000000     0.887010000000     0.341122   
C3       C      0.046310000000     0.412980000000     0.913450000000     0.343075   
C4       C      0.957120000000     0.278270000000     0.964490000000     0.337999   
C5       C      0.975780000000     0.391680000000     0.095320000000     0.342464   
C6       C      0.124870000000     0.262170000000     0.109300000000     0.340591   
C7       C      0.112250000000     0.423650000000     0.157030000000     0.337667   
C8       C      0.998150000000     0.279200000000     0.183890000000     0.340514   
C9       C      0.686450000000     0.613410000000     0.016070000000     0.342893   
C10      C      0.810140000000     0.470950000000     0.033460000000     0.339439   
C11      C      0.711910000000     0.486530000000     0.937180000000     0.338608   
C12      C      0.850280000000     0.601810000000     0.966610000000     0.342028   
C13      C      0.809750000000     0.396010000000     0.254170000000     0.337278   
C14      C      0.687230000000     0.546950000000     0.241860000000     0.341852   
C15      C      0.859200000000     0.548640000000     0.202970000000     0.339021   
C16      C      0.721340000000     0.431640000000     0.160470000000     0.336078   
C17      C      0.873160000000     0.163020000000     0.061400000000     0.339431   
C18      C      0.733450000000     0.040940000000     0.089560000000     0.341317   
C19      C      0.907300000000     0.018940000000     0.120680000000     0.34129    
C20      C      0.794940000000     0.164110000000     0.161920000000     0.33184    
C21      C      0.925410000000     0.042380000000     0.361410000000     0.341431   
C22      C      0.818690000000     0.196410000000     0.861790000000     0.344104   
C23      C      0.914630000000     0.150690000000     0.271150000000     0.339271   
C24      C      0.770980000000     0.043020000000     0.309480000000     0.341365   
C25      C      0.547570000000     0.371130000000     0.983830000000     0.340524   
C26      C      0.681050000000     0.248340000000     0.951050000000     0.337674   
C27      C      0.662470000000     0.321100000000     0.055450000000     0.342433   
C28      C      0.534050000000     0.199410000000     0.018060000000     0.339645   
C29      C      0.693940000000     0.275050000000     0.251700000000     0.33773    
C30      C      0.530180000000     0.392590000000     0.268500000000     0.339349   
C31      C      0.531190000000     0.222260000000     0.290640000000     0.337005   
C32      C      0.650240000000     0.358480000000     0.341680000000     0.331915   
C33      C      0.272190000000     0.645680000000     0.004560000000     0.340249   
C34      C      0.381460000000     0.493000000000     0.969120000000     0.340039   
C35      C      0.213260000000     0.527420000000     0.939280000000     0.340033   
C36      C      0.375640000000     0.641620000000     0.915010000000     0.34003    
C37      C      0.283450000000     0.678550000000     0.289030000000     0.336779   
C38      C      0.404530000000     0.557860000000     0.240770000000     0.340727   
C39      C      0.228060000000     0.580780000000     0.200230000000     0.345934   
C40      C      0.359330000000     0.711860000000     0.190310000000     0.340867   
C41      C      0.427330000000     0.891160000000     0.978470000000     0.334555   
C42      C      0.561570000000     0.776220000000     0.012890000000     0.343006   
C43      C      0.555620000000     0.947250000000     0.050510000000     0.339075   
C44      C      0.442040000000     0.809570000000     0.086020000000     0.342069   
C45      C      0.594540000000     0.724200000000     0.278830000000     0.337147   
C46      C      0.497520000000     0.886070000000     0.251660000000     0.337683   
C47      C      0.472690000000     0.783820000000     0.344740000000     0.338409   
C48      C      0.636510000000     0.887110000000     0.314990000000     0.340664   
C49      C      0.275210000000     0.921250000000     0.074910000000     0.340662   
C50      C      0.396590000000     0.057430000000     0.061150000000     0.346371   
C51      C      0.244910000000     0.093380000000     0.115080000000     0.339185   
C52      C      0.369310000000     0.967230000000     0.160400000000     0.336377   
C53      C      0.215410000000     0.095250000000     0.333800000000     0.343221   
C54      C      0.318890000000     0.955330000000     0.873760000000     0.34387    
C55      C      0.255090000000     0.946910000000     0.269690000000     0.336546   
C56      C      0.393860000000     0.065140000000     0.299510000000     0.337503   
C57      C      0.048460000000     0.901910000000     0.918980000000     0.337535   
C58      C      0.153550000000     0.758330000000     0.378380000000     0.338454   
C59      C      0.161700000000     0.827490000000     0.986030000000     0.334677   
C60      C      0.016610000000     0.724340000000     0.935090000000     0.341912   
C61      C      0.027160000000     0.672830000000     0.176450000000     0.337954   
C62      C      0.174540000000     0.809530000000     0.187130000000     0.343386   
C63      C      0.148330000000     0.715790000000     0.101000000000     0.334184   
C64      C      0.012420000000     0.841470000000     0.142690000000     0.338639   
C65      C      0.212040000000     0.863850000000     0.259060000000    -0.0143484  
C66      C      0.230190000000     0.926190000000     0.213210000000    -0.0168735  
C67      C      0.227580000000     0.819600000000     0.236860000000    -0.0149131  
C68      C      0.241190000000     0.879880000000     0.191080000000    -0.0131868  
C69      C      0.283520000000     0.852720000000     0.034080000000    -0.017359   
C70      C      0.205870000000     0.853900000000     0.070810000000    -0.0133882  
C71      C      0.248370000000     0.858350000000     0.004400000000    -0.0134994  
C72      C      0.167340000000     0.857460000000     0.042250000000    -0.0170859  
C73      C      0.388780000000     0.962240000000     0.219410000000    -0.018074   
C74      C      0.425320000000     0.896940000000     0.180580000000    -0.0158805  
C75      C      0.443100000000     0.962820000000     0.236860000000    -0.0115746  
C76      C      0.480460000000     0.904530000000     0.194330000000    -0.0119524  
C77      C      0.355920000000     0.946200000000     0.956160000000    -0.0169859  
C78      C      0.417160000000     0.895500000000     0.919370000000    -0.0153495  
C79      C      0.310230000000     0.936320000000     0.932360000000    -0.013556   
C80      C      0.369980000000     0.883520000000     0.897610000000    -0.0124722  
C81      C      0.248380000000     0.670690000000     0.344820000000    -0.0168007  
C82      C      0.256150000000     0.756950000000     0.318660000000    -0.0134048  
C83      C      0.189630000000     0.680600000000     0.351720000000    -0.0120376  
C84      C      0.197240000000     0.767320000000     0.325140000000    -0.0163011  
C85      C      0.345350000000     0.781530000000     0.150220000000    -0.0155798  
C86      C      0.437570000000     0.754440000000     0.166510000000    -0.0135582  
C87      C      0.361570000000     0.778660000000     0.114540000000    -0.0127945  
C88      C      0.452920000000     0.748860000000     0.131130000000    -0.0148931  
C89      C      0.221090000000     0.658550000000     0.083130000000    -0.017343   
C90      C      0.159900000000     0.700110000000     0.042450000000    -0.0159487  
C91      C      0.268590000000     0.672460000000     0.061880000000    -0.0113774  
C92      C      0.208050000000     0.712710000000     0.021330000000    -0.0140693  
C93      C      0.454260000000     0.698110000000     0.908470000000    -0.013144   
C94      C      0.395270000000     0.678920000000     0.360960000000    -0.0146803  
C95      C      0.450850000000     0.755430000000     0.900130000000    -0.0155588  
C96      C      0.389340000000     0.736400000000     0.354560000000    -0.0133345  
C97      C      0.477580000000     0.439790000000     0.227460000000    -0.0143116  
C98      C      0.469070000000     0.460810000000     0.286820000000    -0.0145183  
C99      C      0.472710000000     0.497300000000     0.219620000000    -0.0137822  
C100     C      0.468390000000     0.517920000000     0.278580000000    -0.0128383  
C101     C      0.493810000000     0.150420000000     0.322260000000    -0.0153225  
C102     C      0.457430000000     0.172670000000     0.266700000000    -0.0148532  
C103     C      0.484450000000     0.093590000000     0.314690000000    -0.0127978  
C104     C      0.448060000000     0.115310000000     0.260600000000    -0.0141236  
C105     C      0.503760000000     0.451460000000     0.001270000000    -0.0125703  
C106     C      0.492910000000     0.419650000000     0.944670000000    -0.0141921  
C107     C      0.443650000000     0.449480000000     0.006360000000    -0.0146243  
C108     C      0.432550000000     0.418070000000     0.949180000000    -0.0141807  
C109     C      0.490640000000     0.073110000000     0.047240000000    -0.0128641  
C110     C      0.418880000000     0.111570000000     0.013700000000    -0.0129778  
C111     C      0.514750000000     0.125850000000     0.053480000000    -0.0152454  
C112     C      0.442490000000     0.165320000000     0.018530000000    -0.015004   
C113     C      0.935670000000     0.975670000000     0.903450000000    -0.0143174  
C114     C      0.010530000000     0.996170000000     0.364180000000    -0.0134935  
C115     C      0.977820000000     0.966280000000     0.929390000000    -0.0130824  
C116     C      0.050370000000     0.985370000000     0.391080000000    -0.0140199  
C117     C      0.669650000000     0.966350000000     0.341080000000    -0.0145431  
C118     C      0.728550000000     0.915600000000     0.303910000000    -0.0139221  
C119     C      0.678990000000     0.014370000000     0.320490000000    -0.0135296  
C120     C      0.738030000000     0.963650000000     0.283410000000    -0.0139765  
C121     C      0.812090000000     0.240110000000     0.914480000000    -0.0157856  
C122     C      0.744840000000     0.256930000000     0.872010000000    -0.011652   
C123     C      0.770040000000     0.215750000000     0.936300000000    -0.0135041  
C124     C      0.700930000000     0.233780000000     0.893160000000    -0.0181022  
C125     C      0.956950000000     0.893260000000     0.105530000000    -0.0147353  
C126     C      0.957790000000     0.912390000000     0.165080000000    -0.0142863  
C127     C      0.964940000000     0.950350000000     0.098390000000    -0.0132808  
C128     C      0.965530000000     0.969620000000     0.157740000000    -0.0141411  
C129     C      0.623900000000     0.011550000000     0.035990000000    -0.0146902  
C130     C      0.594800000000     0.001950000000     0.093320000000    -0.014173   
C131     C      0.681510000000     0.001250000000     0.045570000000    -0.0134392  
C132     C      0.652300000000     0.992240000000     0.103780000000    -0.0141611  
C133     C      0.759230000000     0.283810000000     0.207020000000    -0.0168823  
C134     C      0.766000000000     0.210800000000     0.245150000000    -0.0134241  
C135     C      0.756830000000     0.247190000000     0.178130000000    -0.0147505  
C136     C      0.761670000000     0.171890000000     0.217630000000    -0.0170361  
C137     C      0.613420000000     0.661370000000     0.235580000000    -0.0149551  
C138     C      0.653330000000     0.650970000000     0.291570000000    -0.015771   
C139     C      0.608420000000     0.602830000000     0.233390000000    -0.0129271  
C140     C      0.646900000000     0.592750000000     0.288350000000    -0.0116894  
C141     C      0.983050000000     0.590000000000     0.164300000000    -0.0148618  
C142     C      0.978950000000     0.626300000000     0.219990000000    -0.0139268  
C143     C      0.922630000000     0.584540000000     0.163460000000    -0.0126747  
C144     C      0.918280000000     0.619440000000     0.220490000000    -0.0148275  
C145     C      0.663010000000     0.363840000000     0.137860000000    -0.0175114  
C146     C      0.705930000000     0.428940000000     0.101430000000    -0.0157228  
C147     C      0.679360000000     0.321020000000     0.114440000000    -0.0127222  
C148     C      0.723310000000     0.385900000000     0.078600000000    -0.0122951  
C149     C      0.574140000000     0.684960000000     0.997190000000    -0.0147164  
C150     C      0.652500000000     0.740460000000     0.011410000000    -0.013698   
C151     C      0.593560000000     0.644290000000     0.021360000000    -0.0133143  
C152     C      0.669750000000     0.700950000000     0.036570000000    -0.0133021  
C153     C      0.933110000000     0.685290000000     0.915050000000    -0.0132648  
C154     C      0.989960000000     0.638330000000     0.954630000000    -0.0121676  
C155     C      0.884000000000     0.676360000000     0.936120000000    -0.014249   
C156     C      0.942220000000     0.629460000000     0.976610000000    -0.0148076  
C157     C      0.657440000000     0.372520000000     0.900720000000    -0.0183223  
C158     C      0.716270000000     0.420700000000     0.362140000000    -0.0171246  
C159     C      0.645310000000     0.423110000000     0.918250000000    -0.010172   
C160     C      0.702230000000     0.471190000000     0.378770000000    -0.0114738  
C161     C      0.138410000000     0.480140000000     0.202080000000    -0.015978   
C162     C      0.181500000000     0.488700000000     0.146670000000    -0.0159213  
C163     C      0.140380000000     0.538570000000     0.205410000000    -0.0117426  
C164     C      0.183050000000     0.546940000000     0.151510000000    -0.0114442  
C165     C      0.154920000000     0.130860000000     0.107490000000    -0.014756   
C166     C      0.228500000000     0.182940000000     0.132530000000    -0.0143991  
C167     C      0.141610000000     0.176290000000     0.085210000000    -0.0135569  
C168     C      0.216150000000     0.226840000000     0.109190000000    -0.0134366  
C169     C      0.997490000000     0.188360000000     0.249580000000    -0.013377   
C170     C      0.921370000000     0.170530000000     0.212740000000    -0.0170233  
C171     C      0.997980000000     0.244540000000     0.239310000000    -0.014154   
C172     C      0.921490000000     0.226410000000     0.201190000000    -0.0124515  
C173     C      0.910440000000     0.462510000000     0.090660000000    -0.0117211  
C174     C      0.926090000000     0.402030000000     0.044120000000    -0.0136353  
C175     C      0.850440000000     0.454940000000     0.087090000000    -0.0165016  
C176     C      0.866100000000     0.393910000000     0.041400000000    -0.013963   
C177     C      0.094000000000     0.489010000000     0.892080000000    -0.0121211  
C178     C      0.075460000000     0.481570000000     0.950630000000    -0.0111437  
C179     C      0.154020000000     0.490360000000     0.898100000000    -0.0151879  
C180     C      0.134710000000     0.480470000000     0.958510000000    -0.0152701  
C181     C      0.167680000000     0.199250000000     0.882160000000    -0.0139784  
C182     C      0.092000000000     0.139770000000     0.869350000000    -0.01593    
C183     C      0.195420000000     0.184070000000     0.351220000000    -0.013635   
C184     C      0.121170000000     0.122930000000     0.338330000000    -0.0123277  
C185     C      0.969970000000     0.247860000000     0.020830000000    -0.016352   
C186     C      0.878690000000     0.263250000000     0.999430000000    -0.0119472  
C187     C      0.953270000000     0.194770000000     0.033170000000    -0.0127358  
C188     C      0.861390000000     0.209730000000     0.010120000000    -0.0167672  
C189     C      0.840170000000     0.355230000000     0.331510000000    -0.0117748  
C190     C      0.919810000000     0.353030000000     0.293660000000    -0.0131906  
C191     C      0.804790000000     0.340260000000     0.302830000000    -0.0192884  
C192     C      0.882890000000     0.335620000000     0.266580000000    -0.0148924  
C193     C      0.929150000000     0.329080000000     0.850850000000     0.339963   
C194     C      0.074760000000     0.229530000000     0.387070000000     0.340938   
C195     C      0.046500000000     0.413090000000     0.413230000000     0.343075   
C196     C      0.957120000000     0.278450000000     0.464500000000     0.337971   
C197     C      0.975830000000     0.391690000000     0.595510000000     0.342334   
C198     C      0.125050000000     0.262340000000     0.609400000000     0.340504   
C199     C      0.112260000000     0.423800000000     0.657180000000     0.337753   
C200     C      0.998350000000     0.279120000000     0.684000000000     0.340476   
C201     C      0.686550000000     0.613490000000     0.516270000000     0.342918   
C202     C      0.810130000000     0.470790000000     0.533640000000     0.33928    
C203     C      0.711730000000     0.486680000000     0.437380000000     0.338639   
C204     C      0.850360000000     0.601590000000     0.466890000000     0.342124   
C205     C      0.809980000000     0.395750000000     0.754040000000     0.337112   
C206     C      0.687470000000     0.546710000000     0.741810000000     0.341808   
C207     C      0.859340000000     0.548430000000     0.702800000000     0.338979   
C208     C      0.721440000000     0.431430000000     0.660390000000     0.33617    
C209     C      0.873210000000     0.162990000000     0.561310000000     0.339715   
C210     C      0.733490000000     0.040900000000     0.589480000000     0.341371   
C211     C      0.907390000000     0.018840000000     0.620540000000     0.341218   
C212     C      0.795010000000     0.163990000000     0.661830000000     0.331966   
C213     C      0.925070000000     0.041040000000     0.860850000000     0.341521   
C214     C      0.818600000000     0.196930000000     0.361690000000     0.344109   
C215     C      0.914510000000     0.150620000000     0.771260000000     0.339348   
C216     C      0.770410000000     0.043100000000     0.809310000000     0.341458   
C217     C      0.547450000000     0.371110000000     0.483740000000     0.340636   
C218     C      0.680890000000     0.248460000000     0.450930000000     0.337644   
C219     C      0.662350000000     0.321030000000     0.555370000000     0.342323   
C220     C      0.533950000000     0.199360000000     0.517950000000     0.339793   
C221     C      0.693810000000     0.274840000000     0.751600000000     0.337741   
C222     C      0.530110000000     0.392480000000     0.768490000000     0.339334   
C223     C      0.531080000000     0.222070000000     0.790600000000     0.337066   
C224     C      0.650360000000     0.358120000000     0.841610000000     0.33188    
C225     C      0.272450000000     0.645800000000     0.504300000000     0.340274   
C226     C      0.381480000000     0.493050000000     0.468900000000     0.340106   
C227     C      0.213510000000     0.527580000000     0.438970000000     0.340008   
C228     C      0.375940000000     0.641770000000     0.414730000000     0.340259   
C229     C      0.283610000000     0.678730000000     0.789120000000     0.336816   
C230     C      0.404510000000     0.557840000000     0.740840000000     0.340721   
C231     C      0.228000000000     0.580920000000     0.700380000000     0.345774   
C232     C      0.359370000000     0.711820000000     0.690330000000     0.340874   
C233     C      0.427350000000     0.891220000000     0.478470000000     0.334819   
C234     C      0.561550000000     0.776180000000     0.512880000000     0.342985   
C235     C      0.555620000000     0.947240000000     0.550490000000     0.339042   
C236     C      0.442080000000     0.809540000000     0.586000000000     0.342168   
C237     C      0.594760000000     0.724020000000     0.778560000000     0.337051   
C238     C      0.497350000000     0.885880000000     0.751440000000     0.337722   
C239     C      0.472870000000     0.783240000000     0.844390000000     0.338489   
C240     C      0.636490000000     0.886880000000     0.814530000000     0.340775   
C241     C      0.275080000000     0.921260000000     0.574790000000     0.340651   
C242     C      0.396510000000     0.057390000000     0.561030000000     0.346326   
C243     C      0.244860000000     0.093420000000     0.614990000000     0.339246   
C244     C      0.369140000000     0.967170000000     0.660260000000     0.336356   
C245     C      0.215220000000     0.094980000000     0.833700000000     0.34325    
C246     C      0.318960000000     0.955490000000     0.373770000000     0.34384    
C247     C      0.254990000000     0.946730000000     0.769600000000     0.336647   
C248     C      0.393770000000     0.064920000000     0.799520000000     0.337582   
C249     C      0.048060000000     0.901350000000     0.419030000000     0.337742   
C250     C      0.153770000000     0.758680000000     0.878490000000     0.338364   
C251     C      0.161630000000     0.827260000000     0.485960000000     0.33452    
C252     C      0.016800000000     0.723740000000     0.435190000000     0.34189    
C253     C      0.027260000000     0.672650000000     0.676170000000     0.338018   
C254     C      0.174610000000     0.809360000000     0.686970000000     0.343336   
C255     C      0.148520000000     0.715670000000     0.600780000000     0.334237   
C256     C      0.012580000000     0.841360000000     0.642490000000     0.338524   
C257     C      0.211890000000     0.863700000000     0.758920000000    -0.0143133  
C258     C      0.230170000000     0.926040000000     0.713100000000    -0.0168923  
C259     C      0.227510000000     0.819440000000     0.736740000000    -0.0149154  
C260     C      0.241240000000     0.879720000000     0.690980000000    -0.0131265  
C261     C      0.283420000000     0.852720000000     0.533970000000    -0.0173371  
C262     C      0.205770000000     0.853880000000     0.570710000000    -0.0134189  
C263     C      0.248260000000     0.858290000000     0.504300000000    -0.0135847  
C264     C      0.167240000000     0.857390000000     0.542160000000    -0.0170895  
C265     C      0.388570000000     0.962080000000     0.719270000000    -0.0180959  
C266     C      0.425150000000     0.896860000000     0.680400000000    -0.0158811  
C267     C      0.442890000000     0.962640000000     0.736730000000    -0.0115697  
C268     C      0.480290000000     0.904500000000     0.694130000000    -0.0119789  
C269     C      0.355880000000     0.946240000000     0.456190000000    -0.0170043  
C270     C      0.417260000000     0.895770000000     0.419380000000    -0.0152686  
C271     C      0.310240000000     0.936340000000     0.432360000000    -0.0135719  
C272     C      0.370130000000     0.883710000000     0.397600000000    -0.0124698  
C273     C      0.248670000000     0.670980000000     0.844950000000    -0.0167726  
C274     C      0.256410000000     0.757190000000     0.818730000000    -0.013373   
C275     C      0.189950000000     0.680920000000     0.851910000000    -0.0120691  
C276     C      0.197530000000     0.767610000000     0.825270000000    -0.0163476  
C277     C      0.345350000000     0.781350000000     0.650150000000    -0.0155868  
C278     C      0.437590000000     0.754370000000     0.666490000000    -0.0135328  
C279     C      0.361620000000     0.778480000000     0.614480000000    -0.0127705  
C280     C      0.452990000000     0.748810000000     0.631110000000    -0.0150209  
C281     C      0.221350000000     0.658510000000     0.582900000000    -0.0173613  
C282     C      0.160090000000     0.699980000000     0.542230000000    -0.0159121  
C283     C      0.268830000000     0.672500000000     0.561650000000    -0.0113761  
C284     C      0.208210000000     0.712700000000     0.521120000000    -0.0141305  
C285     C      0.454560000000     0.698260000000     0.408190000000    -0.0131178  
C286     C      0.395640000000     0.678010000000     0.861120000000    -0.0142306  
C287     C      0.450540000000     0.755710000000     0.400410000000    -0.015384   
C288     C      0.389830000000     0.735320000000     0.854230000000    -0.0133981  
C289     C      0.477480000000     0.439720000000     0.727480000000    -0.0143697  
C290     C      0.469060000000     0.460710000000     0.786850000000    -0.0145415  
C291     C      0.472620000000     0.497230000000     0.719660000000    -0.0136699  
C292     C      0.468370000000     0.517820000000     0.778620000000    -0.0127756  
C293     C      0.493620000000     0.150330000000     0.822270000000    -0.0152645  
C294     C      0.457400000000     0.172400000000     0.766640000000    -0.0148608  
C295     C      0.484290000000     0.093480000000     0.814770000000    -0.0127827  
C296     C      0.448040000000     0.115020000000     0.760610000000    -0.0141226  
C297     C      0.503600000000     0.451420000000     0.501170000000    -0.012674   
C298     C      0.492890000000     0.419650000000     0.444550000000    -0.0142541  
C299     C      0.443490000000     0.449420000000     0.506200000000    -0.0145487  
C300     C      0.432510000000     0.418050000000     0.449020000000    -0.0140413  
C301     C      0.490560000000     0.073040000000     0.547140000000    -0.0128791  
C302     C      0.418830000000     0.111480000000     0.513570000000    -0.0130065  
C303     C      0.514660000000     0.125790000000     0.553370000000    -0.0151957  
C304     C      0.442410000000     0.165230000000     0.518410000000    -0.0149435  
C305     C      0.935550000000     0.976590000000     0.403680000000    -0.0140931  
C306     C      0.009980000000     0.994150000000     0.863270000000    -0.0136256  
C307     C      0.977280000000     0.965510000000     0.429580000000    -0.0130803  
C308     C      0.050130000000     0.985310000000     0.890270000000    -0.0137194  
C309     C      0.669840000000     0.965760000000     0.840950000000    -0.014547   
C310     C      0.728170000000     0.915900000000     0.802960000000    -0.0138943  
C311     C      0.678620000000     0.014190000000     0.820660000000    -0.013516   
C312     C      0.737000000000     0.964350000000     0.782740000000    -0.0139622  
C313     C      0.811890000000     0.240730000000     0.414320000000    -0.0157586  
C314     C      0.744550000000     0.257240000000     0.371850000000    -0.011669   
C315     C      0.769980000000     0.216180000000     0.436150000000    -0.0134636  
C316     C      0.700740000000     0.233970000000     0.393030000000    -0.0181916  
C317     C      0.957120000000     0.893180000000     0.605340000000    -0.0147111  
C318     C      0.957930000000     0.912240000000     0.664900000000    -0.0142825  
C319     C      0.965060000000     0.950290000000     0.598220000000    -0.0133638  
C320     C      0.965620000000     0.969490000000     0.657590000000    -0.0141673  
C321     C      0.623890000000     0.011540000000     0.535940000000    -0.014725   
C322     C      0.594810000000     0.001970000000     0.593280000000    -0.0142937  
C323     C      0.681500000000     0.001220000000     0.545510000000    -0.0134501  
C324     C      0.652320000000     0.992260000000     0.603730000000    -0.0140787  
C325     C      0.759130000000     0.283630000000     0.706940000000    -0.0169499  
C326     C      0.765900000000     0.210610000000     0.745060000000    -0.013401   
C327     C      0.756810000000     0.247030000000     0.678040000000    -0.0146734  
C328     C      0.761650000000     0.171710000000     0.717520000000    -0.0170532  
C329     C      0.613500000000     0.660960000000     0.735410000000    -0.0149139  
C330     C      0.653820000000     0.650990000000     0.791310000000    -0.0157511  
C331     C      0.608530000000     0.602410000000     0.733400000000    -0.0128058  
C332     C      0.647400000000     0.592740000000     0.788280000000    -0.0117667  
C333     C      0.982980000000     0.589940000000     0.663950000000    -0.0148235  
C334     C      0.979210000000     0.625970000000     0.719710000000    -0.0138543  
C335     C      0.922550000000     0.584530000000     0.663220000000    -0.0127012  
C336     C      0.918540000000     0.619140000000     0.720320000000    -0.0148868  
C337     C      0.663040000000     0.363680000000     0.637810000000    -0.0174197  
C338     C      0.705850000000     0.428820000000     0.601360000000    -0.0158229  
C339     C      0.679320000000     0.320880000000     0.614350000000    -0.0127551  
C340     C      0.723210000000     0.385810000000     0.578510000000    -0.0123253  
C341     C      0.574100000000     0.684820000000     0.497380000000    -0.0147561  
C342     C      0.652500000000     0.740480000000     0.511270000000    -0.0137917  
C343     C      0.593670000000     0.644370000000     0.521650000000    -0.0132901  
C344     C      0.669920000000     0.701190000000     0.536520000000    -0.0132847  
C345     C      0.933540000000     0.684300000000     0.415100000000    -0.0131452  
C346     C      0.990100000000     0.637970000000     0.455110000000    -0.0120612  
C347     C      0.884290000000     0.675740000000     0.436100000000    -0.014297   
C348     C      0.942210000000     0.629450000000     0.477030000000    -0.0148718  
C349     C      0.657330000000     0.372920000000     0.400800000000    -0.0180362  
C350     C      0.716660000000     0.420080000000     0.862040000000    -0.0171176  
C351     C      0.645030000000     0.423390000000     0.418400000000    -0.0103008  
C352     C      0.702600000000     0.470620000000     0.878590000000    -0.0112782  
C353     C      0.138380000000     0.480300000000     0.702230000000    -0.0158147  
C354     C      0.181380000000     0.488960000000     0.646800000000    -0.0159513  
C355     C      0.140320000000     0.538730000000     0.705600000000    -0.0118901  
C356     C      0.182880000000     0.547200000000     0.651670000000    -0.0114875  
C357     C      0.154950000000     0.131050000000     0.607330000000    -0.0147167  
C358     C      0.228480000000     0.182890000000     0.632610000000    -0.0143768  
C359     C      0.141830000000     0.176610000000     0.585120000000    -0.0136084  
C360     C      0.216300000000     0.226940000000     0.609360000000    -0.0134284  
C361     C      0.997450000000     0.188260000000     0.749760000000    -0.0133229  
C362     C      0.921400000000     0.170510000000     0.712860000000    -0.0170171  
C363     C      0.998150000000     0.244400000000     0.739410000000    -0.0142136  
C364     C      0.921660000000     0.226350000000     0.701260000000    -0.0124495  
C365     C      0.910320000000     0.462380000000     0.590910000000    -0.0117722  
C366     C      0.926220000000     0.402100000000     0.544300000000    -0.0136117  
C367     C      0.850350000000     0.454690000000     0.587270000000    -0.0164074  
C368     C      0.866250000000     0.393850000000     0.541520000000    -0.0139597  
C369     C      0.094410000000     0.488880000000     0.391710000000    -0.0121115  
C370     C      0.075630000000     0.481910000000     0.450250000000    -0.011023   
C371     C      0.154410000000     0.490230000000     0.397820000000    -0.0151888  
C372     C      0.134840000000     0.480820000000     0.458230000000    -0.0154038  
C373     C      0.167570000000     0.198990000000     0.382600000000    -0.0139734  
C374     C      0.091860000000     0.139940000000     0.369080000000    -0.0160366  
C375     C      0.195140000000     0.183980000000     0.850710000000    -0.0136061  
C376     C      0.120940000000     0.122410000000     0.838550000000    -0.0123583  
C377     C      0.969930000000     0.248040000000     0.520840000000    -0.0163654  
C378     C      0.878660000000     0.263300000000     0.499380000000    -0.0118057  
C379     C      0.953310000000     0.194890000000     0.533120000000    -0.012702   
C380     C      0.861440000000     0.209720000000     0.510020000000    -0.016916   
C381     C      0.840230000000     0.354890000000     0.831380000000    -0.0117727  
C382     C      0.919990000000     0.352990000000     0.793620000000    -0.0131375  
C383     C      0.804980000000     0.339880000000     0.802640000000    -0.0193193  
C384     C      0.883210000000     0.335490000000     0.766490000000    -0.0149518  
Cd1      Cd     0.001950000000     0.311440000000     0.903710000000     0.508296   
Cd2      Cd     0.051610000000     0.337650000000     0.134740000000     0.509827   
Cd3      Cd     0.761890000000     0.541790000000     0.989060000000     0.509493   
Cd4      Cd     0.769660000000     0.480870000000     0.215740000000     0.506747   
Cd5      Cd     0.827230000000     0.096800000000     0.109620000000     0.506987   
Cd6      Cd     0.857380000000     0.110440000000     0.325480000000     0.508808   
Cd7      Cd     0.606800000000     0.280750000000     0.000540000000     0.507825   
Cd8      Cd     0.601220000000     0.310260000000     0.286840000000     0.508444   
Cd9      Cd     0.311360000000     0.577340000000     0.955910000000     0.511541   
Cd10     Cd     0.318450000000     0.630310000000     0.229950000000     0.508522   
Cd11     Cd     0.493060000000     0.859130000000     0.031960000000     0.510491   
Cd12     Cd     0.549030000000     0.821180000000     0.298700000000     0.510091   
Cd13     Cd     0.319770000000     0.011430000000     0.104000000000     0.509522   
Cd14     Cd     0.294350000000     0.017630000000     0.318090000000     0.506193   
Cd15     Cd     0.095670000000     0.803330000000     0.931310000000     0.509316   
Cd16     Cd     0.088610000000     0.759970000000     0.153070000000     0.507544   
Cd17     Cd     0.001980000000     0.311570000000     0.403700000000     0.508275   
Cd18     Cd     0.051750000000     0.337710000000     0.634910000000     0.509841   
Cd19     Cd     0.761860000000     0.541700000000     0.489300000000     0.509528   
Cd20     Cd     0.769860000000     0.480630000000     0.715640000000     0.506725   
Cd21     Cd     0.827320000000     0.096720000000     0.609510000000     0.506986   
Cd22     Cd     0.857200000000     0.109970000000     0.825430000000     0.508828   
Cd23     Cd     0.606660000000     0.280730000000     0.500460000000     0.507867   
Cd24     Cd     0.601130000000     0.310080000000     0.786770000000     0.508472   
Cd25     Cd     0.311600000000     0.577500000000     0.455630000000     0.511532   
Cd26     Cd     0.318480000000     0.630370000000     0.730050000000     0.508513   
Cd27     Cd     0.493060000000     0.859120000000     0.531940000000     0.510503   
Cd28     Cd     0.549020000000     0.820910000000     0.798350000000     0.510231   
Cd29     Cd     0.319650000000     0.011430000000     0.603880000000     0.509572   
Cd30     Cd     0.294230000000     0.017390000000     0.818040000000     0.506181   
Cd31     Cd     0.095600000000     0.802910000000     0.431280000000     0.509396   
Cd32     Cd     0.088740000000     0.759810000000     0.652840000000     0.507523   
H1       H      0.188780000000     0.939400000000     0.208870000000     0.0549204  
H2       H      0.168020000000     0.867610000000     0.259010000000     0.0532848  
H3       H      0.207470000000     0.783820000000     0.244890000000     0.0595108  
H4       H      0.257230000000     0.958130000000     0.206340000000     0.0603332  
H5       H      0.229120000000     0.889290000000     0.165960000000     0.0588451  
H6       H      0.284790000000     0.872860000000     0.191050000000     0.0447757  
H7       H      0.224450000000     0.854310000000     0.283980000000     0.0488851  
H8       H      0.271240000000     0.813500000000     0.238750000000     0.0566722  
H9       H      0.212130000000     0.812620000000     0.076650000000     0.0485817  
H10      H      0.289500000000     0.811180000000     0.039130000000     0.0470435  
H11      H      0.265830000000     0.834880000000     0.984600000000     0.0501086  
H12      H      0.187940000000     0.872720000000     0.092330000000     0.0617042  
H13      H      0.132430000000     0.832570000000     0.047340000000     0.0609715  
H14      H      0.152530000000     0.897640000000     0.040590000000     0.0545565  
H15      H      0.323160000000     0.869610000000     0.029040000000     0.0701799  
H16      H      0.249090000000     0.899200000000     0.996580000000     0.0486253  
H17      H      0.406050000000     0.865020000000     0.193990000000     0.0469509  
H18      H      0.362210000000     0.935390000000     0.232630000000     0.0551129  
H19      H      0.436490000000     0.966690000000     0.263290000000     0.0589656  
H20      H      0.428720000000     0.885660000000     0.154770000000     0.0568118  
H21      H      0.504780000000     0.869620000000     0.189720000000     0.0527607  
H22      H      0.499630000000     0.937300000000     0.181620000000     0.0503636  
H23      H      0.370650000000     0.001160000000     0.220620000000     0.066141   
H24      H      0.465150000000     0.997420000000     0.228640000000     0.0454382  
H25      H      0.438370000000     0.929340000000     0.909270000000     0.0569712  
H26      H      0.372380000000     0.985040000000     0.951230000000     0.052499   
H27      H      0.282440000000     0.969540000000     0.932700000000     0.0550122  
H28      H      0.445250000000     0.862640000000     0.918820000000     0.0549065  
H29      H      0.384450000000     0.877050000000     0.372540000000     0.0579866  
H30      H      0.351080000000     0.847460000000     0.906300000000     0.0465553  
H31      H      0.339680000000     0.946480000000     0.981150000000     0.0552655  
H32      H      0.288010000000     0.901960000000     0.940740000000     0.0491451  
H33      H      0.278980000000     0.772790000000     0.339280000000     0.0455579  
H34      H      0.271100000000     0.683540000000     0.366340000000     0.0575996  
H35      H      0.178630000000     0.660980000000     0.874620000000     0.0589544  
H36      H      0.269230000000     0.777460000000     0.296600000000     0.0475653  
H37      H      0.191310000000     0.809150000000     0.329090000000     0.0559933  
H38      H      0.174220000000     0.755920000000     0.303400000000     0.0503689  
H39      H      0.255230000000     0.628810000000     0.341580000000     0.0633062  
H40      H      0.166000000000     0.663620000000     0.331730000000     0.0506179  
H41      H      0.449330000000     0.793210000000     0.174680000000     0.046679   
H42      H      0.349880000000     0.821880000000     0.158240000000     0.0446337  
H43      H      0.340210000000     0.809110000000     0.100870000000     0.0526375  
H44      H      0.460730000000     0.726280000000     0.180960000000     0.0571811  
H45      H      0.496090000000     0.757030000000     0.128660000000     0.053363   
H46      H      0.446360000000     0.708250000000     0.123800000000     0.0502339  
H47      H      0.302570000000     0.771560000000     0.152520000000     0.056106   
H48      H      0.348650000000     0.740840000000     0.105030000000     0.0446702  
H49      H      0.142370000000     0.663490000000     0.033700000000     0.0536872  
H50      H      0.208860000000     0.618550000000     0.077360000000     0.0499231  
H51      H      0.300890000000     0.643880000000     0.065480000000     0.0545526  
H52      H      0.129550000000     0.730780000000     0.039390000000     0.0607234  
H53      H      0.195960000000     0.713020000000     0.995530000000     0.0632679  
H54      H      0.221690000000     0.751690000000     0.027810000000     0.0479987  
H55      H      0.233710000000     0.659500000000     0.108840000000     0.0572794  
H56      H      0.283500000000     0.710590000000     0.069750000000     0.0418829  
H57      H      0.428950000000     0.664290000000     0.346160000000     0.0545302  
H58      H      0.490780000000     0.682790000000     0.396220000000     0.0492807  
H59      H      0.488200000000     0.775080000000     0.407290000000     0.0576458  
H60      H      0.359250000000     0.657530000000     0.853360000000     0.0559292  
H61      H      0.381250000000     0.743020000000     0.328510000000     0.0569618  
H62      H      0.355120000000     0.749850000000     0.868120000000     0.0441431  
H63      H      0.458660000000     0.693730000000     0.935030000000     0.0554393  
H64      H      0.418260000000     0.772400000000     0.914820000000     0.0483299  
H65      H      0.427330000000     0.447330000000     0.289150000000     0.052053   
H66      H      0.437700000000     0.422050000000     0.224560000000     0.0501307  
H67      H      0.451790000000     0.502010000000     0.196190000000     0.0527799  
H68      H      0.488680000000     0.455840000000     0.310660000000     0.0529932  
H69      H      0.445750000000     0.538890000000     0.297510000000     0.0530104  
H70      H      0.510000000000     0.532260000000     0.278880000000     0.045191   
H71      H      0.504590000000     0.421480000000     0.209570000000     0.0547019  
H72      H      0.513510000000     0.512990000000     0.216710000000     0.0468372  
H73      H      0.419190000000     0.190240000000     0.274440000000     0.0529238  
H74      H      0.459830000000     0.164760000000     0.336900000000     0.0542067  
H75      H      0.477040000000     0.072330000000     0.337530000000     0.0541438  
H76      H      0.469110000000     0.191060000000     0.243530000000     0.0542852  
H77      H      0.413700000000     0.110390000000     0.244050000000     0.0529746  
H78      H      0.483870000000     0.099390000000     0.248400000000     0.0442647  
H79      H      0.530290000000     0.153820000000     0.337230000000     0.0543761  
H80      H      0.521310000000     0.077790000000     0.303630000000     0.0459574  
H81      H      0.503730000000     0.457720000000     0.934410000000     0.0465892  
H82      H      0.514390000000     0.490630000000     0.992700000000     0.0503866  
H83      H      0.431790000000     0.479850000000     0.023800000000     0.0550481  
H84      H      0.505240000000     0.389600000000     0.927110000000     0.0533006  
H85      H      0.412940000000     0.426240000000     0.925710000000     0.0546551  
H86      H      0.421300000000     0.378510000000     0.956640000000     0.0523317  
H87      H      0.524310000000     0.444870000000     0.024660000000     0.054865   
H88      H      0.433490000000     0.411620000000     0.017160000000     0.05188    
H89      H      0.435910000000     0.095030000000     0.991180000000     0.0482087  
H90      H      0.510050000000     0.056410000000     0.025500000000     0.050398   
H91      H      0.558570000000     0.121770000000     0.055490000000     0.0515425  
H92      H      0.375140000000     0.114760000000     0.010540000000     0.0519039  
H93      H      0.436870000000     0.187770000000     0.995940000000     0.0530005  
H94      H      0.419830000000     0.184970000000     0.038010000000     0.0507898  
H95      H      0.499040000000     0.047570000000     0.068060000000     0.056017   
H96      H      0.499820000000     0.140100000000     0.077120000000     0.0519851  
H97      H      0.007070000000     0.961250000000     0.348870000000     0.054071   
H98      H      0.921420000000     0.939680000000     0.393280000000     0.0517655  
H99      H      0.962610000000     0.937990000000     0.947240000000     0.0536764  
H100     H      0.026480000000     0.027610000000     0.348810000000     0.0501991  
H101     H      0.088220000000     0.971250000000     0.380400000000     0.0584789  
H102     H      0.058850000000     0.022510000000     0.902340000000     0.0446939  
H103     H      0.900470000000     0.993990000000     0.914950000000     0.0537449  
H104     H      0.984950000000     0.003130000000     0.942260000000     0.0475286  
H105     H      0.760940000000     0.912950000000     0.322090000000     0.0501441  
H106     H      0.699440000000     0.966000000000     0.360890000000     0.0513434  
H107     H      0.676510000000     0.049070000000     0.336060000000     0.0531472  
H108     H      0.730890000000     0.880930000000     0.288310000000     0.054083   
H109     H      0.778240000000     0.961680000000     0.272360000000     0.054835   
H110     H      0.708310000000     0.964070000000     0.263550000000     0.0505306  
H111     H      0.629460000000     0.968350000000     0.352160000000     0.054264   
H112     H      0.646640000000     0.016870000000     0.302280000000     0.0477457  
H113     H      0.746650000000     0.298800000000     0.876980000000     0.0425066  
H114     H      0.814150000000     0.281860000000     0.920060000000     0.0588545  
H115     H      0.780050000000     0.223900000000     0.961830000000     0.0479729  
H116     H      0.734530000000     0.251940000000     0.345920000000     0.0574311  
H117     H      0.663250000000     0.254880000000     0.888700000000     0.0639022  
H118     H      0.694760000000     0.193250000000     0.885580000000     0.0585069  
H119     H      0.851620000000     0.222880000000     0.919650000000     0.0651779  
H120     H      0.771410000000     0.173390000000     0.932930000000     0.0537623  
H121     H      0.914550000000     0.905210000000     0.168250000000     0.0504523  
H122     H      0.913610000000     0.885060000000     0.104910000000     0.0506656  
H123     H      0.945800000000     0.959950000000     0.074970000000     0.0538673  
H124     H      0.977830000000     0.903060000000     0.188260000000     0.0546185  
H125     H      0.946270000000     0.992780000000     0.177040000000     0.0547421  
H126     H      0.008840000000     0.977990000000     0.158120000000     0.0494772  
H127     H      0.976210000000     0.870200000000     0.086180000000     0.0558755  
H128     H      0.008310000000     0.957450000000     0.095780000000     0.049247   
H129     H      0.586780000000     0.043810000000     0.095630000000     0.0437262  
H130     H      0.617230000000     0.053740000000     0.036650000000     0.0472245  
H131     H      0.708090000000     0.023350000000     0.029250000000     0.05629    
H132     H      0.567290000000     0.981260000000     0.109820000000     0.0529401  
H133     H      0.658160000000     0.008430000000     0.128360000000     0.0530704  
H134     H      0.658700000000     0.950030000000     0.105240000000     0.0513297  
H135     H      0.617180000000     0.998390000000     0.010790000000     0.0535045  
H136     H      0.689950000000     0.959720000000     0.041860000000     0.0527003  
H137     H      0.808770000000     0.219410000000     0.249150000000     0.050301   
H138     H      0.801530000000     0.294120000000     0.211220000000     0.0482026  
H139     H      0.780470000000     0.264170000000     0.158110000000     0.0498041  
H140     H      0.749970000000     0.193610000000     0.267710000000     0.0648901  
H141     H      0.786990000000     0.138090000000     0.223340000000     0.0640801  
H142     H      0.719920000000     0.158100000000     0.216450000000     0.0549594  
H143     H      0.737350000000     0.319640000000     0.201220000000     0.063935   
H144     H      0.714860000000     0.244560000000     0.169950000000     0.0483839  
H145     H      0.695000000000     0.661090000000     0.285310000000     0.0529542  
H146     H      0.650180000000     0.673120000000     0.222650000000     0.0521529  
H147     H      0.611640000000     0.590700000000     0.207730000000     0.0519436  
H148     H      0.646720000000     0.661770000000     0.317240000000     0.0536596  
H149     H      0.678040000000     0.573110000000     0.302860000000     0.0516577  
H150     H      0.607520000000     0.581960000000     0.298500000000     0.044174   
H151     H      0.579130000000     0.679090000000     0.222820000000     0.0543156  
H152     H      0.568220000000     0.591950000000     0.242190000000     0.045553   
H153     H      0.997300000000     0.591460000000     0.230840000000     0.0455551  
H154     H      0.000160000000     0.553240000000     0.173250000000     0.0482505  
H155     H      0.912350000000     0.550550000000     0.148510000000     0.0506069  
H156     H      0.989830000000     0.659830000000     0.235220000000     0.0530912  
H157     H      0.905790000000     0.608940000000     0.245390000000     0.0527429  
H158     H      0.899640000000     0.657040000000     0.214590000000     0.0506222  
H159     H      0.998110000000     0.596220000000     0.139370000000     0.0523461  
H160     H      0.905720000000     0.619030000000     0.151380000000     0.051582   
H161     H      0.667360000000     0.444440000000     0.092640000000     0.055645   
H162     H      0.621770000000     0.375860000000     0.131870000000     0.0534562  
H163     H      0.649270000000     0.289840000000     0.115250000000     0.055169   
H164     H      0.735360000000     0.460620000000     0.100440000000     0.0588082  
H165     H      0.725190000000     0.401130000000     0.053560000000     0.0607032  
H166     H      0.763840000000     0.373280000000     0.085610000000     0.0469451  
H167     H      0.662750000000     0.348300000000     0.162860000000     0.0572177  
H168     H      0.717740000000     0.304830000000     0.122810000000     0.0459473  
H169     H      0.673420000000     0.731810000000     0.988360000000     0.0522938  
H170     H      0.589900000000     0.674720000000     0.972930000000     0.0493487  
H171     H      0.582430000000     0.605390000000     0.012620000000     0.0521135  
H172     H      0.664930000000     0.779380000000     0.019410000000     0.0544612  
H173     H      0.713530000000     0.702860000000     0.039900000000     0.05436    
H174     H      0.650700000000     0.710980000000     0.059990000000     0.0504073  
H175     H      0.530040000000     0.683920000000     0.995890000000     0.0543375  
H176     H      0.572910000000     0.651020000000     0.044740000000     0.0492243  
H177     H      0.993830000000     0.604690000000     0.938220000000     0.0447972  
H178     H      0.936240000000     0.652210000000     0.397440000000     0.0474395  
H179     H      0.849030000000     0.670590000000     0.920130000000     0.0536406  
H180     H      0.026610000000     0.640400000000     0.969520000000     0.051249   
H181     H      0.947280000000     0.591710000000     0.988800000000     0.0518459  
H182     H      0.942080000000     0.659640000000     0.995610000000     0.0529776  
H183     H      0.928190000000     0.721870000000     0.901530000000     0.0531834  
H184     H      0.876660000000     0.711590000000     0.950650000000     0.0517     
H185     H      0.753320000000     0.405540000000     0.373230000000     0.0445337  
H186     H      0.690800000000     0.353360000000     0.913540000000     0.0533688  
H187     H      0.639210000000     0.415120000000     0.944350000000     0.061583   
H188     H      0.724440000000     0.428400000000     0.336220000000     0.0576059  
H189     H      0.736220000000     0.498150000000     0.376360000000     0.0546587  
H190     H      0.667560000000     0.488420000000     0.366100000000     0.0486177  
H191     H      0.622100000000     0.347090000000     0.902260000000     0.0682331  
H192     H      0.607480000000     0.438800000000     0.908470000000     0.047267   
H193     H      0.221200000000     0.472760000000     0.152900000000     0.0533917  
H194     H      0.173070000000     0.463530000000     0.215060000000     0.0534183  
H195     H      0.143240000000     0.549090000000     0.231360000000     0.0531575  
H196     H      0.174250000000     0.480600000000     0.120690000000     0.0545348  
H197     H      0.217370000000     0.563290000000     0.138080000000     0.0516877  
H198     H      0.146080000000     0.563620000000     0.141140000000     0.0506009  
H199     H      0.101770000000     0.465970000000     0.214150000000     0.054079   
H200     H      0.102560000000     0.554680000000     0.195850000000     0.0474812  
H201     H      0.206360000000     0.189910000000     0.155370000000     0.0523828  
H202     H      0.128430000000     0.133090000000     0.128950000000     0.0502572  
H203     H      0.098310000000     0.176420000000     0.079920000000     0.0511942  
H204     H      0.271650000000     0.183270000000     0.138220000000     0.054843   
H205     H      0.227400000000     0.264030000000     0.120440000000     0.05436    
H206     H      0.240960000000     0.221620000000     0.087180000000     0.0492035  
H207     H      0.146040000000     0.094340000000     0.094700000000     0.0534618  
H208     H      0.163200000000     0.170640000000     0.062030000000     0.0486684  
H209     H      0.946880000000     0.147680000000     0.196130000000     0.0572132  
H210     H      0.025240000000     0.166780000000     0.233630000000     0.0483742  
H211     H      0.039440000000     0.259100000000     0.240420000000     0.0548859  
H212     H      0.880470000000     0.154940000000     0.211390000000     0.0598561  
H213     H      0.909830000000     0.227470000000     0.175320000000     0.0583445  
H214     H      0.890830000000     0.247830000000     0.215020000000     0.0415629  
H215     H      0.012320000000     0.185010000000     0.274770000000     0.0543121  
H216     H      0.974040000000     0.266460000000     0.257000000000     0.0461013  
H217     H      0.937750000000     0.433210000000     0.027190000000     0.0542642  
H218     H      0.921900000000     0.497340000000     0.076760000000     0.0489136  
H219     H      0.829530000000     0.490670000000     0.094530000000     0.0600958  
H220     H      0.947040000000     0.366420000000     0.036620000000     0.0530383  
H221     H      0.855600000000     0.384680000000     0.016000000000     0.0540046  
H222     H      0.855180000000     0.360410000000     0.056680000000     0.044823   
H223     H      0.919870000000     0.469750000000     0.116460000000     0.0555368  
H224     H      0.838240000000     0.423630000000     0.103760000000     0.0524823  
H225     H      0.061760000000     0.522230000000     0.951070000000     0.0425452  
H226     H      0.079030000000     0.529250000000     0.892090000000     0.0445154  
H227     H      0.172320000000     0.518160000000     0.881010000000     0.0530006  
H228     H      0.053030000000     0.460100000000     0.969410000000     0.0523041  
H229     H      0.140910000000     0.501000000000     0.981760000000     0.053719   
H230     H      0.147130000000     0.439840000000     0.962070000000     0.0561999  
H231     H      0.085930000000     0.472280000000     0.867880000000     0.0524547  
H232     H      0.170660000000     0.451790000000     0.892480000000     0.054915   
H233     H      0.101710000000     0.112050000000     0.888910000000     0.0465397  
H234     H      0.183210000000     0.174310000000     0.901820000000     0.0501759  
H235     H      0.238850000000     0.187430000000     0.853880000000     0.0538784  
H236     H      0.048300000000     0.138490000000     0.364700000000     0.0602735  
H237     H      0.111870000000     0.081930000000     0.333440000000     0.0508852  
H238     H      0.105670000000     0.146000000000     0.317790000000     0.0493399  
H239     H      0.178270000000     0.239610000000     0.888050000000     0.0545379  
H240     H      0.183530000000     0.211960000000     0.332190000000     0.0503569  
H241     H      0.869480000000     0.290170000000     0.019410000000     0.0438387  
H242     H      0.964560000000     0.275680000000     0.040910000000     0.0595976  
H243     H      0.974440000000     0.186860000000     0.056200000000     0.0578986  
H244     H      0.855400000000     0.275450000000     0.978030000000     0.0473379  
H245     H      0.818640000000     0.211250000000     0.016870000000     0.0589124  
H246     H      0.865580000000     0.183080000000     0.989280000000     0.0496803  
H247     H      0.012900000000     0.247100000000     0.014500000000     0.0590663  
H248     H      0.966460000000     0.165530000000     0.015300000000     0.0496906  
H249     H      0.925640000000     0.395230000000     0.291490000000     0.0538454  
H250     H      0.837170000000     0.397470000000     0.335050000000     0.0481806  
H251     H      0.764560000000     0.356790000000     0.306050000000     0.0616844  
H252     H      0.959310000000     0.334750000000     0.290420000000     0.0527974  
H253     H      0.899510000000     0.347320000000     0.242810000000     0.0530349  
H254     H      0.880640000000     0.292960000000     0.267150000000     0.0445003  
H255     H      0.824770000000     0.336580000000     0.353720000000     0.0488969  
H256     H      0.800870000000     0.297700000000     0.302590000000     0.0542417  
H257     H      0.188770000000     0.939230000000     0.708720000000     0.0549037  
H258     H      0.167870000000     0.867460000000     0.758810000000     0.05324    
H259     H      0.207390000000     0.783660000000     0.744760000000     0.0595611  
H260     H      0.257210000000     0.957990000000     0.706240000000     0.0603145  
H261     H      0.229230000000     0.889130000000     0.665840000000     0.058805   
H262     H      0.284840000000     0.872720000000     0.690990000000     0.0447471  
H263     H      0.224200000000     0.854170000000     0.783860000000     0.0488434  
H264     H      0.271170000000     0.813370000000     0.738680000000     0.0567276  
H265     H      0.212060000000     0.812610000000     0.576560000000     0.0486531  
H266     H      0.289440000000     0.811190000000     0.539050000000     0.0470374  
H267     H      0.265740000000     0.834810000000     0.484500000000     0.0501176  
H268     H      0.187840000000     0.872710000000     0.592220000000     0.061729   
H269     H      0.132330000000     0.832500000000     0.547260000000     0.0610368  
H270     H      0.152430000000     0.897570000000     0.540460000000     0.0545099  
H271     H      0.323050000000     0.869630000000     0.528930000000     0.0701269  
H272     H      0.248930000000     0.899130000000     0.496470000000     0.0486245  
H273     H      0.405930000000     0.864920000000     0.693810000000     0.0469515  
H274     H      0.362010000000     0.935200000000     0.732470000000     0.0550857  
H275     H      0.436270000000     0.966430000000     0.763160000000     0.0589504  
H276     H      0.428540000000     0.885600000000     0.654590000000     0.0568551  
H277     H      0.504660000000     0.869640000000     0.689480000000     0.0527933  
H278     H      0.499400000000     0.937330000000     0.681450000000     0.0504012  
H279     H      0.370430000000     0.000990000000     0.720510000000     0.0661597  
H280     H      0.464910000000     0.997280000000     0.728550000000     0.0454337  
H281     H      0.438370000000     0.929700000000     0.409320000000     0.0569615  
H282     H      0.372280000000     0.985120000000     0.451310000000     0.0524992  
H283     H      0.282400000000     0.969520000000     0.432710000000     0.054987   
H284     H      0.445460000000     0.862990000000     0.418790000000     0.054948   
H285     H      0.384260000000     0.876800000000     0.872550000000     0.0578937  
H286     H      0.351310000000     0.847600000000     0.406260000000     0.0465517  
H287     H      0.339610000000     0.946420000000     0.481170000000     0.0552935  
H288     H      0.288060000000     0.901930000000     0.440700000000     0.0490896  
H289     H      0.279320000000     0.773060000000     0.839310000000     0.0456245  
H290     H      0.271460000000     0.683860000000     0.866440000000     0.0573651  
H291     H      0.178250000000     0.660610000000     0.374410000000     0.0588717  
H292     H      0.269420000000     0.777660000000     0.796640000000     0.047643   
H293     H      0.191650000000     0.809440000000     0.829220000000     0.0560804  
H294     H      0.174430000000     0.756220000000     0.803550000000     0.0502968  
H295     H      0.255500000000     0.629100000000     0.841730000000     0.0632535  
H296     H      0.166250000000     0.663900000000     0.831960000000     0.0506401  
H297     H      0.449320000000     0.793130000000     0.674680000000     0.0467471  
H298     H      0.349790000000     0.821710000000     0.658160000000     0.0446122  
H299     H      0.340210000000     0.808870000000     0.600790000000     0.0525972  
H300     H      0.460760000000     0.726200000000     0.680940000000     0.0572413  
H301     H      0.496140000000     0.757050000000     0.628660000000     0.053413   
H302     H      0.446490000000     0.708210000000     0.623780000000     0.0502465  
H303     H      0.302580000000     0.771320000000     0.652430000000     0.0561363  
H304     H      0.348790000000     0.740620000000     0.604980000000     0.0446641  
H305     H      0.142640000000     0.663330000000     0.533470000000     0.0536947  
H306     H      0.209180000000     0.618500000000     0.577130000000     0.0499559  
H307     H      0.301170000000     0.643940000000     0.565230000000     0.0545295  
H308     H      0.129670000000     0.730590000000     0.539180000000     0.060786   
H309     H      0.196120000000     0.713030000000     0.495320000000     0.0633416  
H310     H      0.221780000000     0.751690000000     0.527630000000     0.048031   
H311     H      0.233980000000     0.659480000000     0.608610000000     0.0571982  
H312     H      0.283700000000     0.710630000000     0.569530000000     0.0418685  
H313     H      0.429030000000     0.662230000000     0.846550000000     0.0541589  
H314     H      0.490570000000     0.682120000000     0.896870000000     0.0491756  
H315     H      0.488580000000     0.774700000000     0.906970000000     0.0577012  
H316     H      0.359060000000     0.658260000000     0.353110000000     0.0561392  
H317     H      0.382000000000     0.741400000000     0.828110000000     0.0572608  
H318     H      0.354730000000     0.750600000000     0.368670000000     0.0441482  
H319     H      0.459400000000     0.693280000000     0.434680000000     0.0554179  
H320     H      0.418270000000     0.772750000000     0.415320000000     0.0483317  
H321     H      0.427310000000     0.447230000000     0.789190000000     0.0520362  
H322     H      0.437600000000     0.421990000000     0.724600000000     0.0501456  
H323     H      0.451670000000     0.501960000000     0.696230000000     0.052745   
H324     H      0.488690000000     0.455720000000     0.810680000000     0.0529962  
H325     H      0.445740000000     0.538780000000     0.797570000000     0.0529217  
H326     H      0.509980000000     0.532170000000     0.778910000000     0.0451753  
H327     H      0.504460000000     0.421410000000     0.709570000000     0.0547103  
H328     H      0.513420000000     0.512920000000     0.716730000000     0.0467807  
H329     H      0.419130000000     0.189990000000     0.774330000000     0.0529326  
H330     H      0.459600000000     0.164710000000     0.836860000000     0.0541837  
H331     H      0.476820000000     0.072290000000     0.837630000000     0.0541197  
H332     H      0.469140000000     0.190720000000     0.743460000000     0.0542792  
H333     H      0.413730000000     0.110040000000     0.744030000000     0.0529527  
H334     H      0.483890000000     0.099060000000     0.748470000000     0.0442569  
H335     H      0.530060000000     0.153780000000     0.837280000000     0.0543642  
H336     H      0.521190000000     0.077650000000     0.803760000000     0.0459461  
H337     H      0.503710000000     0.457720000000     0.434310000000     0.0465951  
H338     H      0.514240000000     0.490590000000     0.492620000000     0.0504518  
H339     H      0.431570000000     0.479770000000     0.523650000000     0.0550333  
H340     H      0.505260000000     0.389610000000     0.426990000000     0.0532862  
H341     H      0.412950000000     0.426220000000     0.425520000000     0.0546204  
H342     H      0.421270000000     0.378480000000     0.456460000000     0.0522958  
H343     H      0.524100000000     0.444810000000     0.524570000000     0.0549002  
H344     H      0.433300000000     0.411550000000     0.516970000000     0.0518565  
H345     H      0.435890000000     0.094940000000     0.491060000000     0.0482227  
H346     H      0.509990000000     0.056330000000     0.525410000000     0.050395   
H347     H      0.558490000000     0.121720000000     0.555370000000     0.0515237  
H348     H      0.375090000000     0.114650000000     0.510390000000     0.0518928  
H349     H      0.436780000000     0.187690000000     0.495820000000     0.0529977  
H350     H      0.419730000000     0.184880000000     0.537890000000     0.0507765  
H351     H      0.498950000000     0.047520000000     0.567970000000     0.0560227  
H352     H      0.499740000000     0.140050000000     0.577010000000     0.0519691  
H353     H      0.006780000000     0.958330000000     0.848780000000     0.0540914  
H354     H      0.922840000000     0.937860000000     0.893730000000     0.0518829  
H355     H      0.961480000000     0.936580000000     0.446830000000     0.0537091  
H356     H      0.025440000000     0.024860000000     0.847150000000     0.050706   
H357     H      0.088080000000     0.971150000000     0.879750000000     0.0583714  
H358     H      0.058790000000     0.022120000000     0.403760000000     0.045      
H359     H      0.901220000000     0.995590000000     0.415720000000     0.0535685  
H360     H      0.984750000000     0.001630000000     0.443180000000     0.0473613  
H361     H      0.760950000000     0.913070000000     0.820870000000     0.05018    
H362     H      0.700020000000     0.965140000000     0.860550000000     0.0513646  
H363     H      0.676360000000     0.048590000000     0.836490000000     0.0531437  
H364     H      0.730340000000     0.881520000000     0.787100000000     0.0541026  
H365     H      0.776960000000     0.962730000000     0.771320000000     0.0548888  
H366     H      0.706810000000     0.965050000000     0.763150000000     0.0504895  
H367     H      0.629860000000     0.967420000000     0.852330000000     0.0543054  
H368     H      0.645890000000     0.016940000000     0.802700000000     0.0476977  
H369     H      0.746220000000     0.299130000000     0.376780000000     0.0424383  
H370     H      0.813750000000     0.282500000000     0.419890000000     0.0587427  
H371     H      0.779990000000     0.224350000000     0.461690000000     0.0479795  
H372     H      0.734810000000     0.251740000000     0.846070000000     0.0573332  
H373     H      0.662990000000     0.254960000000     0.388600000000     0.0640787  
H374     H      0.694690000000     0.193420000000     0.385460000000     0.0585286  
H375     H      0.851510000000     0.223690000000     0.419490000000     0.0653075  
H376     H      0.771530000000     0.173830000000     0.432770000000     0.0537676  
H377     H      0.914690000000     0.905020000000     0.668060000000     0.0504583  
H378     H      0.913790000000     0.884940000000     0.604700000000     0.0506574  
H379     H      0.945910000000     0.959900000000     0.574810000000     0.0538562  
H380     H      0.977980000000     0.902900000000     0.688070000000     0.0546066  
H381     H      0.946340000000     0.992610000000     0.676900000000     0.0547538  
H382     H      0.008930000000     0.977890000000     0.657970000000     0.049479   
H383     H      0.976420000000     0.870170000000     0.585980000000     0.0558451  
H384     H      0.008420000000     0.957440000000     0.595620000000     0.0492417  
H385     H      0.586800000000     0.043830000000     0.595580000000     0.0437561  
H386     H      0.617240000000     0.053730000000     0.536610000000     0.047241   
H387     H      0.708080000000     0.023310000000     0.529180000000     0.0562801  
H388     H      0.567310000000     0.981300000000     0.609780000000     0.052955   
H389     H      0.658200000000     0.008470000000     0.628300000000     0.0530455  
H390     H      0.658700000000     0.950040000000     0.605210000000     0.051308   
H391     H      0.617160000000     0.998380000000     0.510750000000     0.0535183  
H392     H      0.689920000000     0.959690000000     0.541810000000     0.0527174  
H393     H      0.808650000000     0.219250000000     0.749090000000     0.05032    
H394     H      0.801410000000     0.293970000000     0.711170000000     0.0482628  
H395     H      0.780450000000     0.264050000000     0.658030000000     0.0497884  
H396     H      0.749840000000     0.193390000000     0.767600000000     0.0647996  
H397     H      0.787000000000     0.137940000000     0.723250000000     0.0641288  
H398     H      0.719920000000     0.157880000000     0.716320000000     0.0549568  
H399     H      0.737240000000     0.319460000000     0.701140000000     0.0639653  
H400     H      0.714850000000     0.244370000000     0.669840000000     0.0483585  
H401     H      0.695430000000     0.661100000000     0.784900000000     0.0529389  
H402     H      0.650170000000     0.672640000000     0.722350000000     0.0521273  
H403     H      0.611570000000     0.590100000000     0.707760000000     0.0519039  
H404     H      0.647430000000     0.661970000000     0.816970000000     0.0536853  
H405     H      0.678650000000     0.573230000000     0.802760000000     0.0517113  
H406     H      0.608100000000     0.582010000000     0.798560000000     0.0442404  
H407     H      0.579120000000     0.678580000000     0.722680000000     0.0543146  
H408     H      0.568390000000     0.591570000000     0.742330000000     0.0455028  
H409     H      0.997600000000     0.591070000000     0.730460000000     0.0454995  
H410     H      0.000100000000     0.553110000000     0.672790000000     0.0482849  
H411     H      0.912150000000     0.550630000000     0.648220000000     0.0505491  
H412     H      0.990200000000     0.659420000000     0.734980000000     0.05306    
H413     H      0.906180000000     0.608530000000     0.745220000000     0.0527589  
H414     H      0.899890000000     0.656770000000     0.714530000000     0.0506301  
H415     H      0.997890000000     0.596270000000     0.638990000000     0.0523279  
H416     H      0.905600000000     0.619090000000     0.651250000000     0.0515898  
H417     H      0.667250000000     0.444300000000     0.592610000000     0.0557041  
H418     H      0.621780000000     0.375710000000     0.631850000000     0.0534482  
H419     H      0.649220000000     0.289710000000     0.615160000000     0.0551692  
H420     H      0.735250000000     0.460510000000     0.600370000000     0.0589188  
H421     H      0.725040000000     0.401060000000     0.553480000000     0.0607627  
H422     H      0.763750000000     0.373180000000     0.585490000000     0.0469729  
H423     H      0.662830000000     0.348100000000     0.662800000000     0.0571716  
H424     H      0.717710000000     0.304660000000     0.622680000000     0.0459544  
H425     H      0.673280000000     0.731660000000     0.488210000000     0.0523446  
H426     H      0.589750000000     0.674400000000     0.473130000000     0.0493873  
H427     H      0.582520000000     0.605390000000     0.513060000000     0.0521249  
H428     H      0.664950000000     0.779470000000     0.519110000000     0.054489   
H429     H      0.713710000000     0.703150000000     0.539750000000     0.0543472  
H430     H      0.651000000000     0.711410000000     0.559950000000     0.0504087  
H431     H      0.529990000000     0.683740000000     0.496180000000     0.0544193  
H432     H      0.573140000000     0.651270000000     0.545050000000     0.0492081  
H433     H      0.994070000000     0.604080000000     0.438920000000     0.0447194  
H434     H      0.935690000000     0.653510000000     0.897170000000     0.047482   
H435     H      0.849420000000     0.669750000000     0.420060000000     0.0536839  
H436     H      0.026660000000     0.640260000000     0.470090000000     0.0511921  
H437     H      0.947160000000     0.591890000000     0.489470000000     0.0519059  
H438     H      0.941940000000     0.659930000000     0.495840000000     0.053039   
H439     H      0.928730000000     0.720650000000     0.401310000000     0.0532064  
H440     H      0.876880000000     0.711190000000     0.450390000000     0.0517667  
H441     H      0.753680000000     0.404940000000     0.873190000000     0.0444395  
H442     H      0.690380000000     0.352980000000     0.413450000000     0.0531758  
H443     H      0.639030000000     0.415280000000     0.444490000000     0.0616342  
H444     H      0.724890000000     0.427700000000     0.836120000000     0.0575584  
H445     H      0.737030000000     0.497070000000     0.876270000000     0.0545836  
H446     H      0.668380000000     0.488740000000     0.865980000000     0.0484521  
H447     H      0.621690000000     0.347870000000     0.402250000000     0.0680204  
H448     H      0.607140000000     0.439000000000     0.408680000000     0.0471818  
H449     H      0.221110000000     0.473050000000     0.652990000000     0.053411   
H450     H      0.173050000000     0.463700000000     0.715200000000     0.0533988  
H451     H      0.143220000000     0.549220000000     0.731550000000     0.0531864  
H452     H      0.174090000000     0.480890000000     0.620820000000     0.0545147  
H453     H      0.217150000000     0.563590000000     0.638230000000     0.0517649  
H454     H      0.145870000000     0.563850000000     0.641350000000     0.0506803  
H455     H      0.101750000000     0.466100000000     0.714310000000     0.054045   
H456     H      0.102480000000     0.554830000000     0.696060000000     0.0475156  
H457     H      0.206240000000     0.189760000000     0.655430000000     0.0523775  
H458     H      0.128370000000     0.133190000000     0.628750000000     0.0502641  
H459     H      0.098550000000     0.176820000000     0.579750000000     0.0511941  
H460     H      0.271600000000     0.183140000000     0.638390000000     0.0548427  
H461     H      0.227540000000     0.264050000000     0.620710000000     0.054362   
H462     H      0.241210000000     0.221810000000     0.587380000000     0.0491941  
H463     H      0.146090000000     0.094610000000     0.594440000000     0.0534439  
H464     H      0.163530000000     0.171070000000     0.561980000000     0.0486809  
H465     H      0.946910000000     0.147570000000     0.696300000000     0.0571909  
H466     H      0.025200000000     0.166550000000     0.733880000000     0.0483477  
H467     H      0.039670000000     0.258810000000     0.740500000000     0.0548791  
H468     H      0.880470000000     0.154990000000     0.711480000000     0.0598113  
H469     H      0.910070000000     0.227350000000     0.675380000000     0.0583407  
H470     H      0.890990000000     0.247860000000     0.715040000000     0.0415744  
H471     H      0.012180000000     0.184980000000     0.774980000000     0.0542878  
H472     H      0.974310000000     0.266470000000     0.757070000000     0.0460952  
H473     H      0.937830000000     0.433370000000     0.527420000000     0.0542514  
H474     H      0.921740000000     0.497290000000     0.577080000000     0.0489064  
H475     H      0.829350000000     0.490350000000     0.594750000000     0.0601831  
H476     H      0.947270000000     0.366570000000     0.536760000000     0.0530379  
H477     H      0.855830000000     0.384680000000     0.516100000000     0.0539819  
H478     H      0.855380000000     0.360280000000     0.556750000000     0.0448255  
H479     H      0.919670000000     0.469530000000     0.616730000000     0.0556416  
H480     H      0.838180000000     0.423300000000     0.603900000000     0.0524959  
H481     H      0.061970000000     0.522580000000     0.450560000000     0.0425026  
H482     H      0.079480000000     0.529140000000     0.391570000000     0.0445314  
H483     H      0.172810000000     0.517880000000     0.380670000000     0.0529808  
H484     H      0.053110000000     0.460590000000     0.469070000000     0.0522505  
H485     H      0.140960000000     0.501520000000     0.481420000000     0.0537445  
H486     H      0.147220000000     0.440220000000     0.461920000000     0.056221   
H487     H      0.086430000000     0.471970000000     0.367550000000     0.0524457  
H488     H      0.171050000000     0.451610000000     0.392340000000     0.0548971  
H489     H      0.101210000000     0.111920000000     0.388530000000     0.046501   
H490     H      0.182730000000     0.173710000000     0.402200000000     0.0501317  
H491     H      0.239090000000     0.187320000000     0.354630000000     0.0538813  
H492     H      0.048390000000     0.138120000000     0.865200000000     0.0600215  
H493     H      0.111720000000     0.081310000000     0.833940000000     0.0508222  
H494     H      0.105080000000     0.145140000000     0.817960000000     0.0493452  
H495     H      0.178230000000     0.239220000000     0.388780000000     0.0545323  
H496     H      0.182890000000     0.211560000000     0.831600000000     0.0503177  
H497     H      0.869350000000     0.290170000000     0.519380000000     0.0437906  
H498     H      0.964410000000     0.275800000000     0.540950000000     0.0594875  
H499     H      0.974460000000     0.186960000000     0.556160000000     0.0578626  
H500     H      0.855390000000     0.275490000000     0.477970000000     0.0473217  
H501     H      0.818680000000     0.211150000000     0.516740000000     0.0589217  
H502     H      0.865730000000     0.183120000000     0.489160000000     0.0497695  
H503     H      0.012870000000     0.247380000000     0.514550000000     0.0590577  
H504     H      0.966580000000     0.165720000000     0.515230000000     0.0496691  
H505     H      0.925680000000     0.395210000000     0.791480000000     0.0538567  
H506     H      0.837100000000     0.397120000000     0.834950000000     0.0481262  
H507     H      0.764690000000     0.356300000000     0.805820000000     0.0617271  
H508     H      0.959570000000     0.334850000000     0.790410000000     0.0527909  
H509     H      0.899870000000     0.347260000000     0.742750000000     0.0531117  
H510     H      0.881070000000     0.292830000000     0.767050000000     0.0445164  
H511     H      0.824810000000     0.336150000000     0.853550000000     0.0488654  
H512     H      0.801170000000     0.297310000000     0.802370000000     0.0542118  
N1       N      0.214120000000     0.833950000000     0.203670000000    -0.150663   
N2       N      0.235530000000     0.912550000000     0.247710000000    -0.151238   
N3       N      0.192650000000     0.843750000000     0.011090000000    -0.154115   
N4       N      0.256690000000     0.876900000000     0.061520000000    -0.151775   
N5       N      0.474860000000     0.916820000000     0.228730000000    -0.152259   
N6       N      0.394060000000     0.943940000000     0.185830000000    -0.152578   
N7       N      0.331540000000     0.925830000000     0.899950000000    -0.150433   
N8       N      0.399010000000     0.908050000000     0.952360000000    -0.15113    
N9       N      0.179420000000     0.736380000000     0.352880000000    -0.150605   
N10      N      0.265070000000     0.701180000000     0.316650000000    -0.153708   
N11      N      0.419670000000     0.782460000000     0.110790000000    -0.152501   
N12      N      0.379770000000     0.748300000000     0.170100000000    -0.151954   
N13      N      0.251290000000     0.676310000000     0.028090000000    -0.152286   
N14      N      0.176220000000     0.693470000000     0.076410000000    -0.15202    
N15      N      0.437600000000     0.762460000000     0.365990000000    -0.153891   
N16      N      0.407330000000     0.670980000000     0.895640000000    -0.152925   
N17      N      0.446100000000     0.525020000000     0.246110000000    -0.152357   
N18      N      0.495510000000     0.431320000000     0.260950000000    -0.150359   
N19      N      0.440520000000     0.088880000000     0.291560000000    -0.152667   
N20      N      0.497280000000     0.181260000000     0.292380000000    -0.150314   
N21      N      0.416770000000     0.454300000000     0.974890000000    -0.151733   
N22      N      0.518450000000     0.413690000000     0.976380000000    -0.152826   
N23      N      0.499020000000     0.162670000000     0.028110000000    -0.151345   
N24      N      0.433570000000     0.078770000000     0.041110000000    -0.151334   
N25      N      0.027350000000     0.949530000000     0.913860000000    -0.151182   
N26      N      0.957540000000     0.008710000000     0.377470000000    -0.152019   
N27      N      0.730390000000     0.009600000000     0.303630000000    -0.152274   
N28      N      0.677230000000     0.920380000000     0.320860000000    -0.151723   
N29      N      0.716490000000     0.234380000000     0.927590000000    -0.152174   
N30      N      0.795790000000     0.233160000000     0.880770000000    -0.151289   
N31      N      0.944510000000     0.981430000000     0.125430000000    -0.152029   
N32      N      0.977410000000     0.880940000000     0.137930000000    -0.151233   
N33      N      0.689800000000     0.013840000000     0.079940000000    -0.151437   
N34      N      0.588350000000     0.986580000000     0.059390000000    -0.154516   
N35      N      0.775710000000     0.194860000000     0.186090000000    -0.152111   
N36      N      0.738280000000     0.258100000000     0.235800000000    -0.150962   
N37      N      0.648670000000     0.578540000000     0.254070000000    -0.152222   
N38      N      0.617220000000     0.678750000000     0.269480000000    -0.150037   
N39      N      0.900590000000     0.581180000000     0.196430000000    -0.150757   
N40      N      0.997840000000     0.631590000000     0.186560000000    -0.152268   
N41      N      0.687070000000     0.341940000000     0.081740000000    -0.150804   
N42      N      0.698490000000     0.408510000000     0.134290000000    -0.150919   
N43      N      0.651250000000     0.649970000000     0.026190000000    -0.152558   
N44      N      0.594730000000     0.736000000000     0.006320000000    -0.151763   
N45      N      0.891940000000     0.632720000000     0.958360000000    -0.151155   
N46      N      0.981100000000     0.684750000000     0.935230000000    -0.151989   
N47      N      0.688050000000     0.460670000000     0.912430000000    -0.15188    
N48      N      0.673240000000     0.383230000000     0.367180000000    -0.152786   
N49      N      0.184970000000     0.558180000000     0.186210000000    -0.150973   
N50      N      0.141280000000     0.464500000000     0.167800000000    -0.150346   
N51      N      0.159660000000     0.224500000000     0.100170000000    -0.151937   
N52      N      0.210670000000     0.133880000000     0.118450000000    -0.150879   
N53      N      0.973800000000     0.250360000000     0.207070000000    -0.15336    
N54      N      0.943520000000     0.167990000000     0.245490000000    -0.15232    
N55      N      0.838460000000     0.439810000000     0.053630000000    -0.154529   
N56      N      0.939200000000     0.417790000000     0.077320000000    -0.152649   
N57      N      0.166810000000     0.502880000000     0.932070000000    -0.15068    
N58      N      0.068100000000     0.460360000000     0.918200000000    -0.15305    
N59      N      0.178750000000     0.132210000000     0.341330000000    -0.152381   
N60      N      0.109960000000     0.191300000000     0.879250000000    -0.150752   
N61      N      0.895010000000     0.191060000000     0.036830000000    -0.149614   
N62      N      0.936210000000     0.263480000000     0.993540000000    -0.152386   
N63      N      0.829980000000     0.357100000000     0.272660000000    -0.150822   
N64      N      0.896500000000     0.341900000000     0.325690000000    -0.150446   
N65      N      0.214150000000     0.833790000000     0.703540000000    -0.150669   
N66      N      0.235430000000     0.912390000000     0.747600000000    -0.15125    
N67      N      0.192560000000     0.843630000000     0.511010000000    -0.154065   
N68      N      0.256580000000     0.876900000000     0.561410000000    -0.151783   
N69      N      0.474690000000     0.916690000000     0.728550000000    -0.1523     
N70      N      0.393860000000     0.943830000000     0.685680000000    -0.152592   
N71      N      0.331610000000     0.925940000000     0.399950000000    -0.150385   
N72      N      0.399050000000     0.908170000000     0.452370000000    -0.151206   
N73      N      0.179730000000     0.736700000000     0.853040000000    -0.150609   
N74      N      0.265300000000     0.701420000000     0.816740000000    -0.153738   
N75      N      0.419710000000     0.782380000000     0.610760000000    -0.152465   
N76      N      0.379790000000     0.748180000000     0.670060000000    -0.151964   
N77      N      0.251520000000     0.676360000000     0.527860000000    -0.152264   
N78      N      0.176420000000     0.693370000000     0.576190000000    -0.152052   
N79      N      0.438010000000     0.761540000000     0.865640000000    -0.153721   
N80      N      0.407560000000     0.671210000000     0.395370000000    -0.152847   
N81      N      0.446050000000     0.524950000000     0.746160000000    -0.15237    
N82      N      0.495460000000     0.431230000000     0.760960000000    -0.15037    
N83      N      0.440420000000     0.088680000000     0.791600000000    -0.152704   
N84      N      0.497170000000     0.181070000000     0.792360000000    -0.150331   
N85      N      0.416690000000     0.454280000000     0.474710000000    -0.151754   
N86      N      0.518350000000     0.413670000000     0.476280000000    -0.152865   
N87      N      0.498930000000     0.162600000000     0.528000000000    -0.15136    
N88      N      0.433500000000     0.078700000000     0.540990000000    -0.151354   
N89      N      0.026800000000     0.948920000000     0.413980000000    -0.151096   
N90      N      0.957010000000     0.006800000000     0.876560000000    -0.152009   
N91      N      0.729690000000     0.009870000000     0.803380000000    -0.15233    
N92      N      0.677200000000     0.920180000000     0.820340000000    -0.151763   
N93      N      0.716340000000     0.234610000000     0.427460000000    -0.152205   
N94      N      0.795600000000     0.233670000000     0.380620000000    -0.1514     
N95      N      0.944600000000     0.981320000000     0.625280000000    -0.151985   
N96      N      0.977570000000     0.880830000000     0.637740000000    -0.151232   
N97      N      0.689820000000     0.013820000000     0.579880000000    -0.151474   
N98      N      0.588350000000     0.986590000000     0.559350000000    -0.154473   
N99      N      0.775730000000     0.194720000000     0.686000000000    -0.152101   
N100     N      0.738150000000     0.257890000000     0.735710000000    -0.150983   
N101     N      0.648940000000     0.578300000000     0.754030000000    -0.152269   
N102     N      0.617520000000     0.678580000000     0.769240000000    -0.149991   
N103     N      0.900700000000     0.581000000000     0.696230000000    -0.150722   
N104     N      0.997920000000     0.631410000000     0.686260000000    -0.152303   
N105     N      0.686970000000     0.341840000000     0.581660000000    -0.150797   
N106     N      0.698500000000     0.408350000000     0.634230000000    -0.150968   
N107     N      0.651380000000     0.650120000000     0.526340000000    -0.15255    
N108     N      0.594700000000     0.735950000000     0.506320000000    -0.151753   
N109     N      0.892060000000     0.632440000000     0.458620000000    -0.151137   
N110     N      0.981370000000     0.684090000000     0.435410000000    -0.152024   
N111     N      0.687640000000     0.461110000000     0.412600000000    -0.151813   
N112     N      0.673610000000     0.382640000000     0.867110000000    -0.152724   
N113     N      0.184870000000     0.558380000000     0.686370000000    -0.150922   
N114     N      0.141230000000     0.464690000000     0.667960000000    -0.15036    
N115     N      0.159860000000     0.224710000000     0.600230000000    -0.151914   
N116     N      0.210650000000     0.133930000000     0.618390000000    -0.15092    
N117     N      0.974000000000     0.250220000000     0.707160000000    -0.153304   
N118     N      0.943450000000     0.168000000000     0.745640000000    -0.152318   
N119     N      0.838480000000     0.439640000000     0.553790000000    -0.154525   
N120     N      0.939220000000     0.417770000000     0.577530000000    -0.152664   
N121     N      0.167070000000     0.503020000000     0.431770000000    -0.150662   
N122     N      0.068380000000     0.460460000000     0.417880000000    -0.153056   
N123     N      0.178530000000     0.131930000000     0.841210000000    -0.152362   
N124     N      0.109860000000     0.191280000000     0.379350000000    -0.150714   
N125     N      0.895060000000     0.191070000000     0.536750000000    -0.149626   
N126     N      0.936190000000     0.263640000000     0.493530000000    -0.152439   
N127     N      0.830230000000     0.356840000000     0.772510000000    -0.150846   
N128     N      0.896620000000     0.341720000000     0.825610000000    -0.150468   
O1       O      0.024910000000     0.223360000000     0.385420000000    -0.245268   
O2       O      0.006760000000     0.279200000000     0.959550000000    -0.246835   
O3       O      0.912470000000     0.326570000000     0.379760000000    -0.245306   
O4       O      0.046510000000     0.391420000000     0.886140000000    -0.249213   
O5       O      0.025800000000     0.387580000000     0.936260000000    -0.251564   
O6       O      0.978390000000     0.321660000000     0.846830000000    -0.247289   
O7       O      0.090360000000     0.273370000000     0.896140000000    -0.249864   
O8       O      0.928020000000     0.292070000000     0.941040000000    -0.248894   
O9       O      0.075620000000     0.259630000000     0.103300000000    -0.251719   
O10      O      0.042280000000     0.300990000000     0.188860000000    -0.248711   
O11      O      0.003450000000     0.355310000000     0.083760000000    -0.252573   
O12      O      0.115640000000     0.407690000000     0.128150000000    -0.246397   
O13      O      0.080940000000     0.399260000000     0.175490000000    -0.242771   
O14      O      0.983650000000     0.402440000000     0.124670000000    -0.252949   
O15      O      0.139880000000     0.300730000000     0.125410000000    -0.250083   
O16      O      0.978130000000     0.285390000000     0.156170000000    -0.250229   
O17      O      0.787720000000     0.511640000000     0.043310000000    -0.252584   
O18      O      0.804400000000     0.607400000000     0.954480000000    -0.245099   
O19      O      0.735930000000     0.621380000000     0.016150000000    -0.252702   
O20      O      0.699200000000     0.478910000000     0.966390000000    -0.243388   
O21      O      0.747990000000     0.519510000000     0.932170000000    -0.24802    
O22      O      0.671520000000     0.570680000000     0.004750000000    -0.252045   
O23      O      0.806870000000     0.461840000000     0.003530000000    -0.248705   
O24      O      0.854970000000     0.567220000000     0.987850000000    -0.25192    
O25      O      0.722360000000     0.526670000000     0.259630000000    -0.245403   
O26      O      0.751760000000     0.470080000000     0.157590000000    -0.24473    
O27      O      0.766110000000     0.417800000000     0.260830000000    -0.238128   
O28      O      0.835990000000     0.548040000000     0.230100000000    -0.251082   
O29      O      0.841160000000     0.517910000000     0.182010000000    -0.245976   
O30      O      0.834330000000     0.413210000000     0.229810000000    -0.254335   
O31      O      0.690230000000     0.536680000000     0.212070000000    -0.251177   
O32      O      0.713150000000     0.416070000000     0.189010000000    -0.24651    
O33      O      0.766610000000     0.058680000000     0.069550000000    -0.245138   
O34      O      0.806310000000     0.117300000000     0.166570000000    -0.244844   
O35      O      0.823800000000     0.153520000000     0.062500000000    -0.240265   
O36      O      0.885500000000     0.025650000000     0.093540000000    -0.252462   
O37      O      0.892350000000     0.048740000000     0.143110000000    -0.248996   
O38      O      0.901250000000     0.143500000000     0.083690000000    -0.248448   
O39      O      0.743430000000     0.049330000000     0.118980000000    -0.252045   
O40      O      0.800310000000     0.180200000000     0.133240000000    -0.25022    
O41      O      0.856300000000     0.168400000000     0.871960000000    -0.246449   
O42      O      0.816490000000     0.037490000000     0.296830000000    -0.250045   
O43      O      0.878050000000     0.050390000000     0.870030000000    -0.250463   
O44      O      0.932320000000     0.153200000000     0.299680000000    -0.246842   
O45      O      0.869000000000     0.130930000000     0.267790000000    -0.256457   
O46      O      0.941040000000     0.065870000000     0.336450000000    -0.248932   
O47      O      0.801110000000     0.186530000000     0.333820000000    -0.256087   
O48      O      0.765600000000     0.080430000000     0.328660000000    -0.252065   
O49      O      0.634390000000     0.262770000000     0.944410000000    -0.251808   
O50      O      0.582340000000     0.198950000000     0.026510000000    -0.247505   
O51      O      0.558210000000     0.336960000000     0.963060000000    -0.249766   
O52      O      0.669920000000     0.338460000000     0.027200000000    -0.24348    
O53      O      0.630280000000     0.283920000000     0.058030000000    -0.243272   
O54      O      0.564410000000     0.363140000000     0.012130000000    -0.250125   
O55      O      0.693000000000     0.247760000000     0.980700000000    -0.251849   
O56      O      0.519750000000     0.236830000000     0.000650000000    -0.252041   
O57      O      0.539750000000     0.380640000000     0.297510000000    -0.251893   
O58      O      0.615050000000     0.324120000000     0.345450000000    -0.244477   
O59      O      0.667870000000     0.314100000000     0.242460000000    -0.237809   
O60      O      0.533450000000     0.250760000000     0.265910000000    -0.252032   
O61      O      0.561500000000     0.234500000000     0.313840000000    -0.244973   
O62      O      0.676440000000     0.252310000000     0.276510000000    -0.255541   
O63      O      0.553920000000     0.366170000000     0.247120000000    -0.240681   
O64      O      0.662590000000     0.369210000000     0.312840000000    -0.248999   
O65      O      0.369360000000     0.525630000000     0.990570000000    -0.245405   
O66      O      0.334560000000     0.619180000000     0.904390000000    -0.251889   
O67      O      0.257550000000     0.649300000000     0.975370000000    -0.24939    
O68      O      0.229600000000     0.531200000000     0.968060000000    -0.252657   
O69      O      0.242860000000     0.546760000000     0.917660000000    -0.246189   
O70      O      0.306370000000     0.611330000000     0.010860000000    -0.242834   
O71      O      0.359880000000     0.498920000000     0.941810000000    -0.253858   
O72      O      0.385870000000     0.635140000000     0.944610000000    -0.254119   
O73      O      0.385080000000     0.585160000000     0.263110000000    -0.249082   
O74      O      0.309850000000     0.703860000000     0.192620000000    -0.243546   
O75      O      0.287830000000     0.630270000000     0.286440000000    -0.242062   
O76      O      0.230730000000     0.588160000000     0.230340000000    -0.250919   
O77      O      0.267780000000     0.595210000000     0.183920000000    -0.249409   
O78      O      0.296070000000     0.704580000000     0.264340000000    -0.252234   
O79      O      0.383500000000     0.563160000000     0.213230000000    -0.24994    
O80      O      0.389070000000     0.683330000000     0.207260000000    -0.249793   
O81      O      0.579250000000     0.819060000000     0.022520000000    -0.248696   
O82      O      0.491720000000     0.809860000000     0.081650000000    -0.253029   
O83      O      0.465880000000     0.860280000000     0.975360000000    -0.250678   
O84      O      0.555250000000     0.929870000000     0.022020000000    -0.250004   
O85      O      0.525130000000     0.925090000000     0.070430000000    -0.246443   
O86      O      0.417770000000     0.906590000000     0.006940000000    -0.245015   
O87      O      0.511520000000     0.772340000000     0.010750000000    -0.24902    
O88      O      0.414590000000     0.834310000000     0.065560000000    -0.246655   
O89      O      0.523680000000     0.846230000000     0.244090000000    -0.247026   
O90      O      0.591900000000     0.891270000000     0.328940000000    -0.247296   
O91      O      0.566380000000     0.750990000000     0.259810000000    -0.241329   
O92      O      0.463770000000     0.784350000000     0.314680000000    -0.250853   
O93      O      0.516690000000     0.802450000000     0.353790000000    -0.247806   
O94      O      0.601350000000     0.742440000000     0.306880000000    -0.248587   
O95      O      0.493870000000     0.895680000000     0.281530000000    -0.246459   
O96      O      0.640770000000     0.851350000000     0.294490000000    -0.252737   
O97      O      0.409710000000     0.035150000000     0.087080000000    -0.246423   
O98      O      0.339620000000     0.006280000000     0.163580000000    -0.248232   
O99      O      0.315560000000     0.943930000000     0.063590000000    -0.241049   
O100     O      0.292800000000     0.095960000000     0.124380000000    -0.249785   
O101     O      0.230980000000     0.051640000000     0.101820000000    -0.248886   
O102     O      0.253270000000     0.941880000000     0.099240000000    -0.251148   
O103     O      0.347390000000     0.059000000000     0.054990000000    -0.251038   
O104     O      0.374970000000     0.950490000000     0.132030000000    -0.248692   
O105     O      0.286580000000     0.992630000000     0.875600000000    -0.247583   
O106     O      0.354980000000     0.062800000000     0.280160000000    -0.250562   
O107     O      0.264600000000     0.103400000000     0.835380000000    -0.252871   
O108     O      0.256090000000     0.936820000000     0.299550000000    -0.249171   
O109     O      0.272520000000     0.990720000000     0.261630000000    -0.248437   
O110     O      0.202130000000     0.050860000000     0.324400000000    -0.251451   
O111     O      0.339480000000     0.947390000000     0.346300000000    -0.243616   
O112     O      0.386730000000     0.044990000000     0.326940000000    -0.248979   
O113     O      0.139910000000     0.805200000000     0.378310000000    -0.240875   
O114     O      0.057560000000     0.724000000000     0.952880000000    -0.24904    
O115     O      0.089590000000     0.886540000000     0.404450000000    -0.242682   
O116     O      0.180410000000     0.821510000000     0.957920000000    -0.255834   
O117     O      0.112380000000     0.819640000000     0.989220000000    -0.251671   
O118     O      0.028070000000     0.870570000000     0.938820000000    -0.247668   
O119     O      0.141560000000     0.733160000000     0.903400000000    -0.247972   
O120     O      0.011050000000     0.762820000000     0.916660000000    -0.250611   
O121     O      0.149490000000     0.771710000000     0.199040000000    -0.242799   
O122     O      0.031110000000     0.815400000000     0.119480000000    -0.246747   
O123     O      0.043170000000     0.707440000000     0.195630000000    -0.245102   
O124     O      0.159920000000     0.707550000000     0.130320000000    -0.248688   
O125     O      0.109120000000     0.745340000000     0.095790000000    -0.245271   
O126     O      0.039690000000     0.678760000000     0.147150000000    -0.253397   
O127     O      0.160040000000     0.824060000000     0.159350000000    -0.256697   
O128     O      0.028340000000     0.829110000000     0.170580000000    -0.252625   
O129     O      0.024980000000     0.223170000000     0.885600000000    -0.245471   
O130     O      0.006770000000     0.279450000000     0.459580000000    -0.246808   
O131     O      0.912460000000     0.326280000000     0.879690000000    -0.245307   
O132     O      0.046810000000     0.391310000000     0.385990000000    -0.249266   
O133     O      0.025820000000     0.387910000000     0.436080000000    -0.251567   
O134     O      0.978290000000     0.321670000000     0.346830000000    -0.247268   
O135     O      0.090340000000     0.273280000000     0.396410000000    -0.249792   
O136     O      0.928030000000     0.292190000000     0.441030000000    -0.248848   
O137     O      0.075820000000     0.259890000000     0.603320000000    -0.251665   
O138     O      0.042460000000     0.300930000000     0.689000000000    -0.248734   
O139     O      0.003610000000     0.355410000000     0.583920000000    -0.252393   
O140     O      0.115660000000     0.407850000000     0.628310000000    -0.246579   
O141     O      0.081010000000     0.399360000000     0.675660000000    -0.242779   
O142     O      0.983640000000     0.402380000000     0.624880000000    -0.252849   
O143     O      0.140030000000     0.300780000000     0.625640000000    -0.250045   
O144     O      0.978320000000     0.285360000000     0.656290000000    -0.250279   
O145     O      0.787620000000     0.511420000000     0.543520000000    -0.25259    
O146     O      0.804590000000     0.606970000000     0.454580000000    -0.245028   
O147     O      0.736020000000     0.621520000000     0.516170000000    -0.252761   
O148     O      0.699090000000     0.478940000000     0.466590000000    -0.243435   
O149     O      0.747870000000     0.519610000000     0.432400000000    -0.247918   
O150     O      0.671580000000     0.570640000000     0.505160000000    -0.252103   
O151     O      0.806930000000     0.461770000000     0.503690000000    -0.248686   
O152     O      0.854910000000     0.567290000000     0.488320000000    -0.251921   
O153     O      0.722750000000     0.526580000000     0.759540000000    -0.245419   
O154     O      0.751870000000     0.469860000000     0.657500000000    -0.244789   
O155     O      0.766290000000     0.417470000000     0.760680000000    -0.238133   
O156     O      0.836260000000     0.547720000000     0.729970000000    -0.251057   
O157     O      0.841200000000     0.517790000000     0.681820000000    -0.246      
O158     O      0.834590000000     0.413020000000     0.729700000000    -0.254233   
O159     O      0.690310000000     0.536280000000     0.712030000000    -0.251085   
O160     O      0.713300000000     0.415840000000     0.688930000000    -0.24654    
O161     O      0.766660000000     0.058600000000     0.569470000000    -0.245212   
O162     O      0.806420000000     0.117190000000     0.666480000000    -0.244822   
O163     O      0.823870000000     0.153430000000     0.562380000000    -0.240404   
O164     O      0.885600000000     0.025580000000     0.593400000000    -0.25245    
O165     O      0.892430000000     0.048620000000     0.642980000000    -0.248937   
O166     O      0.901290000000     0.143510000000     0.583600000000    -0.248663   
O167     O      0.743500000000     0.049290000000     0.618900000000    -0.252019   
O168     O      0.800360000000     0.180100000000     0.633160000000    -0.2503     
O169     O      0.856250000000     0.169020000000     0.371900000000    -0.246566   
O170     O      0.815660000000     0.037900000000     0.796280000000    -0.250056   
O171     O      0.878020000000     0.051010000000     0.370170000000    -0.250413   
O172     O      0.932180000000     0.152970000000     0.799800000000    -0.24697    
O173     O      0.868880000000     0.130890000000     0.767830000000    -0.256316   
O174     O      0.940430000000     0.064250000000     0.835720000000    -0.249093   
O175     O      0.801140000000     0.186140000000     0.833920000000    -0.256128   
O176     O      0.765440000000     0.079970000000     0.828930000000    -0.252133   
O177     O      0.634180000000     0.262760000000     0.444320000000    -0.25171    
O178     O      0.582240000000     0.198900000000     0.526390000000    -0.247604   
O179     O      0.558120000000     0.336950000000     0.462970000000    -0.24981    
O180     O      0.669760000000     0.338430000000     0.527120000000    -0.243425   
O181     O      0.630180000000     0.283830000000     0.557940000000    -0.243256   
O182     O      0.564210000000     0.363090000000     0.512050000000    -0.250214   
O183     O      0.692880000000     0.247910000000     0.480580000000    -0.251791   
O184     O      0.519620000000     0.236790000000     0.500570000000    -0.252144   
O185     O      0.539730000000     0.380520000000     0.797490000000    -0.2519     
O186     O      0.615010000000     0.323910000000     0.845370000000    -0.244344   
O187     O      0.667750000000     0.313910000000     0.742380000000    -0.237796   
O188     O      0.533400000000     0.250510000000     0.765850000000    -0.252072   
O189     O      0.561340000000     0.234380000000     0.813810000000    -0.244928   
O190     O      0.676290000000     0.252080000000     0.776400000000    -0.255454   
O191     O      0.553800000000     0.366050000000     0.747090000000    -0.240695   
O192     O      0.662730000000     0.368820000000     0.812760000000    -0.248896   
O193     O      0.369410000000     0.525710000000     0.490330000000    -0.245463   
O194     O      0.334640000000     0.619640000000     0.404170000000    -0.251967   
O195     O      0.257780000000     0.649430000000     0.475120000000    -0.249413   
O196     O      0.229720000000     0.531580000000     0.467770000000    -0.252599   
O197     O      0.243230000000     0.546710000000     0.417340000000    -0.246207   
O198     O      0.306680000000     0.611490000000     0.510580000000    -0.242853   
O199     O      0.360000000000     0.499000000000     0.441560000000    -0.253842   
O200     O      0.386390000000     0.634970000000     0.444270000000    -0.25419    
O201     O      0.385110000000     0.585160000000     0.763190000000    -0.24909    
O202     O      0.309890000000     0.703820000000     0.692650000000    -0.243521   
O203     O      0.287940000000     0.630450000000     0.786560000000    -0.242183   
O204     O      0.230740000000     0.588260000000     0.730500000000    -0.250802   
O205     O      0.267710000000     0.595350000000     0.684060000000    -0.249318   
O206     O      0.296210000000     0.704720000000     0.764410000000    -0.252282   
O207     O      0.383460000000     0.563160000000     0.713310000000    -0.249967   
O208     O      0.389110000000     0.683350000000     0.707320000000    -0.249725   
O209     O      0.579240000000     0.819070000000     0.522410000000    -0.248685   
O210     O      0.491760000000     0.809930000000     0.581670000000    -0.253084   
O211     O      0.465910000000     0.860380000000     0.475350000000    -0.250908   
O212     O      0.555260000000     0.929840000000     0.522010000000    -0.250026   
O213     O      0.525140000000     0.925080000000     0.570420000000    -0.24641    
O214     O      0.417740000000     0.906570000000     0.506950000000    -0.245088   
O215     O      0.511490000000     0.772260000000     0.510820000000    -0.249028   
O216     O      0.414610000000     0.834200000000     0.565520000000    -0.246729   
O217     O      0.523510000000     0.846060000000     0.743810000000    -0.247103   
O218     O      0.592110000000     0.890660000000     0.828790000000    -0.247246   
O219     O      0.566360000000     0.750610000000     0.759550000000    -0.241274   
O220     O      0.463990000000     0.783610000000     0.814330000000    -0.250838   
O221     O      0.516700000000     0.802260000000     0.853440000000    -0.247671   
O222     O      0.601720000000     0.742430000000     0.806550000000    -0.248606   
O223     O      0.493750000000     0.895420000000     0.781320000000    -0.246619   
O224     O      0.640520000000     0.851470000000     0.793780000000    -0.252833   
O225     O      0.409600000000     0.035140000000     0.586980000000    -0.246375   
O226     O      0.339420000000     0.006200000000     0.663460000000    -0.248191   
O227     O      0.315420000000     0.943940000000     0.563470000000    -0.241121   
O228     O      0.292710000000     0.095900000000     0.624370000000    -0.249814   
O229     O      0.230930000000     0.051760000000     0.601630000000    -0.248934   
O230     O      0.253140000000     0.941890000000     0.599130000000    -0.251098   
O231     O      0.347310000000     0.058970000000     0.554870000000    -0.251047   
O232     O      0.374840000000     0.950490000000     0.631880000000    -0.248689   
O233     O      0.286580000000     0.992720000000     0.375620000000    -0.247653   
O234     O      0.354950000000     0.062480000000     0.780130000000    -0.250538   
O235     O      0.264800000000     0.103480000000     0.335760000000    -0.252848   
O236     O      0.255980000000     0.936610000000     0.799450000000    -0.249299   
O237     O      0.272430000000     0.990540000000     0.761560000000    -0.248533   
O238     O      0.201970000000     0.050420000000     0.824610000000    -0.251455   
O239     O      0.339330000000     0.947140000000     0.846280000000    -0.243666   
O240     O      0.386560000000     0.044860000000     0.826970000000    -0.248984   
O241     O      0.140140000000     0.805550000000     0.878390000000    -0.240806   
O242     O      0.057640000000     0.723680000000     0.453080000000    -0.249032   
O243     O      0.089640000000     0.886730000000     0.904190000000    -0.242601   
O244     O      0.180350000000     0.821190000000     0.457860000000    -0.255804   
O245     O      0.112310000000     0.819400000000     0.489170000000    -0.251664   
O246     O      0.027470000000     0.869690000000     0.438580000000    -0.247701   
O247     O      0.141450000000     0.732800000000     0.403300000000    -0.248098   
O248     O      0.011250000000     0.762030000000     0.416600000000    -0.250438   
O249     O      0.149540000000     0.771540000000     0.698850000000    -0.242806   
O250     O      0.031290000000     0.815310000000     0.619270000000    -0.2467     
O251     O      0.043400000000     0.707150000000     0.695380000000    -0.245154   
O252     O      0.160100000000     0.707430000000     0.630100000000    -0.248776   
O253     O      0.109280000000     0.745180000000     0.595570000000    -0.245336   
O254     O      0.039670000000     0.678690000000     0.646860000000    -0.253427   
O255     O      0.160170000000     0.823890000000     0.659170000000    -0.256643   
O256     O      0.028460000000     0.828940000000     0.670380000000    -0.252593   


