data_structure

_audit_creation_method RASPA-1.0
_audit_creation_date 2023-5-22
_audit_author_name 'Poobodin Mano'

_cell_length_a    63.3259
_cell_length_b    33.2734
_cell_length_c    49.5805
_cell_angle_alpha 89.9995
_cell_angle_beta  90.0075
_cell_angle_gamma 89.9983
_cell_volume      104469

_symmetry_cell_setting          triclinic
_symmetry_space_group_name_Hall 'P 1'
_symmetry_space_group_name_H-M  'P 1'
_symmetry_Int_Tables_number     1

_symmetry_equiv_pos_as_xyz 'x,y,z'

loop_
_atom_site_label
_atom_site_type_symbol
_atom_site_fract_x
_atom_site_fract_y
_atom_site_fract_z
_atom_site_charge
C1       C      0.414350000000     0.208620000000     0.897730000000     0.339693   
C2       C      0.419020000000     0.586850000000     0.904770000000     0.336375   
C3       C      0.446780000000     0.086980000000     0.939930000000     0.338414   
C4       C      0.379420000000     0.141130000000     0.963810000000     0.266224   
C5       C      0.551180000000     0.426500000000     0.076030000000     0.336096   
C6       C      0.540180000000     0.052690000000     0.086660000000     0.337925   
C7       C      0.609600000000     0.483600000000     0.037260000000     0.262412   
C8       C      0.541000000000     0.533730000000     0.009480000000     0.342283   
C9       C      0.427750000000     0.341310000000     0.836420000000     0.339522   
C10      C      0.401250000000     0.470900000000     0.845490000000     0.339612   
C11      C      0.467250000000     0.462510000000     0.808590000000     0.340473   
C12      C      0.413740000000     0.405190000000     0.757410000000     0.265501   
C13      C      0.571160000000     0.464810000000     0.688380000000     0.336181   
C14      C      0.593020000000     0.092420000000     0.667480000000     0.337642   
C15      C      0.534720000000     0.514970000000     0.754710000000     0.339623   
C16      C      0.605570000000     0.562240000000     0.751210000000     0.260272   
C17      C      0.431420000000     0.361060000000     0.426150000000     0.335666   
C18      C      0.461250000000     0.489640000000     0.434170000000     0.336225   
C19      C      0.434500000000     0.430140000000     0.510250000000     0.266501   
C20      C      0.495800000000     0.370810000000     0.470430000000     0.342195   
C21      C      0.580840000000     0.221730000000     0.602860000000     0.337757   
C22      C      0.587170000000     0.356440000000     0.609870000000     0.344661   
C23      C      0.632270000000     0.286010000000     0.546650000000     0.259435   
C24      C      0.559680000000     0.314660000000     0.531020000000     0.341214   
C25      C      0.429310000000     0.118400000000     0.365100000000     0.340868   
C26      C      0.408270000000     0.249100000000     0.360170000000     0.339732   
C27      C      0.465060000000     0.212590000000     0.306230000000     0.337626   
C28      C      0.399290000000     0.156590000000     0.283220000000     0.265058   
C29      C      0.549060000000     0.169140000000     0.162170000000     0.340275   
C30      C      0.552770000000     0.305950000000     0.148050000000     0.33696    
C31      C      0.526240000000     0.235900000000     0.232080000000     0.339016   
C32      C      0.597100000000     0.261400000000     0.214480000000     0.2553     
C33      C      0.073020000000     0.436790000000     0.566450000000     0.340148   
C34      C      0.041390000000     0.069550000000     0.540280000000     0.341372   
C35      C      0.114730000000     0.500710000000     0.501720000000     0.26233    
C36      C      0.039330000000     0.523170000000     0.504090000000     0.341417   
C37      C      0.914640000000     0.605370000000     0.418020000000     0.337678   
C38      C      0.902430000000     0.206580000000     0.388870000000     0.336328   
C39      C      0.851860000000     0.127900000000     0.426480000000     0.258223   
C40      C      0.929270000000     0.101140000000     0.442270000000     0.340824   
C41      C      0.945760000000     0.337800000000     0.925860000000     0.3355     
C42      C      0.948920000000     0.465510000000     0.935030000000     0.342581   
C43      C      0.917770000000     0.407930000000     0.009280000000     0.262439   
C44      C      0.986000000000     0.365880000000     0.998550000000     0.337486   
C45      C      0.083580000000     0.196550000000     0.102700000000     0.339909   
C46      C      0.080550000000     0.331700000000     0.130830000000     0.337072   
C47      C      0.128600000000     0.284330000000     0.063180000000     0.253241   
C48      C      0.056540000000     0.305340000000     0.044340000000     0.343591   
C49      C      0.063440000000     0.438660000000     0.209300000000     0.340267   
C50      C      0.098100000000     0.072190000000     0.169530000000     0.338378   
C51      C      0.002580000000     0.483670000000     0.252750000000     0.343839   
C52      C      0.068030000000     0.533830000000     0.280010000000     0.263469   
C53      C      0.878370000000     0.495550000000     0.358220000000     0.335754   
C54      C      0.889270000000     0.351890000000     0.343060000000     0.338436   
C55      C      0.849510000000     0.422540000000     0.284700000000     0.266917   
C56      C      0.926010000000     0.456060000000     0.299490000000     0.34048    
C57      C      0.967630000000     0.078070000000     0.847690000000     0.339886   
C58      C      0.952970000000     0.210650000000     0.858840000000     0.341554   
C59      C      0.986940000000     0.175350000000     0.780080000000     0.341589   
C60      C      0.915190000000     0.139640000000     0.790920000000     0.262114   
C61      C      0.078210000000     0.306530000000     0.632130000000     0.341856   
C62      C      0.062670000000     0.176700000000     0.615140000000     0.337309   
C63      C      0.111570000000     0.221830000000     0.689820000000     0.260999   
C64      C      0.040640000000     0.209580000000     0.697280000000     0.340128   
C65      C      0.840590000000     0.345630000000     0.858380000000     0.340465   
C66      C      0.817830000000     0.471100000000     0.843130000000     0.341943   
C67      C      0.847130000000     0.415040000000     0.768490000000     0.264614   
C68      C      0.786530000000     0.349710000000     0.798340000000     0.339347   
C69      C      0.716060000000     0.204400000000     0.651790000000     0.339422   
C70      C      0.686940000000     0.334760000000     0.659360000000     0.336801   
C71      C      0.662330000000     0.228450000000     0.714130000000     0.26491    
C72      C      0.728990000000     0.291290000000     0.728580000000     0.342811   
C73      C      0.758230000000     0.325110000000     0.391510000000     0.336992   
C74      C      0.798280000000     0.434620000000     0.418780000000     0.340104   
C75      C      0.725710000000     0.433800000000     0.437900000000     0.341789   
C76      C      0.773560000000     0.346960000000     0.484650000000     0.264768   
C77      C      0.714350000000     0.093630000000     0.572350000000     0.338092   
C78      C      0.665500000000     0.451020000000     0.588080000000     0.340749   
C79      C      0.612150000000     0.542710000000     0.549770000000     0.260212   
C80      C      0.675660000000     0.499470000000     0.508310000000     0.340533   
C81      C      0.823150000000     0.079890000000     0.920650000000     0.339854   
C82      C      0.835150000000     0.219570000000     0.923030000000     0.343679   
C83      C      0.788090000000     0.168180000000     0.984060000000     0.33937    
C84      C      0.859090000000     0.132010000000     0.994770000000     0.267024   
C85      C      0.706390000000     0.332400000000     0.094680000000     0.337076   
C86      C      0.654630000000     0.227580000000     0.081380000000     0.340067   
C87      C      0.666030000000     0.329160000000     0.018580000000     0.264318   
C88      C      0.718290000000     0.222700000000     0.035740000000     0.341743   
C89      C      0.619840000000     0.113840000000     0.133320000000     0.33501    
C90      C      0.695520000000     0.451100000000     0.163750000000     0.337555   
C91      C      0.715210000000     0.552080000000     0.226230000000     0.341215   
C92      C      0.647610000000     0.479360000000     0.230980000000     0.263297   
C93      C      0.757000000000     0.214690000000     0.312220000000     0.339583   
C94      C      0.820110000000     0.556660000000     0.360110000000     0.333897   
C95      C      0.740280000000     0.119170000000     0.246130000000     0.34195    
C96      C      0.800060000000     0.211020000000     0.236210000000     0.263472   
C97      C      0.313500000000     0.597720000000     0.848280000000     0.341774   
C98      C      0.281900000000     0.237370000000     0.821700000000     0.341243   
C99      C      0.312060000000     0.192210000000     0.744010000000     0.260853   
C100     C      0.250240000000     0.127750000000     0.763850000000     0.340036   
C101     C      0.151270000000     0.089560000000     0.642190000000     0.342174   
C102     C      0.186190000000     0.467990000000     0.681430000000     0.340531   
C103     C      0.225440000000     0.580330000000     0.720720000000     0.339076   
C104     C      0.160750000000     0.536600000000     0.754910000000     0.26581    
C105     C      0.286510000000     0.335970000000     0.907540000000     0.339889   
C106     C      0.299890000000     0.466610000000     0.909310000000     0.3355     
C107     C      0.253880000000     0.436600000000     0.973990000000     0.339604   
C108     C      0.316430000000     0.371180000000     0.986910000000     0.262732   
C109     C      0.150390000000     0.445960000000     0.109180000000     0.333135   
C110     C      0.169880000000     0.583060000000     0.105920000000     0.333674   
C111     C      0.191500000000     0.483340000000     0.042680000000     0.340239   
C112     C      0.119070000000     0.540170000000     0.046170000000     0.264901   
C113     C      0.313760000000     0.203710000000     0.404310000000     0.3387     
C114     C      0.298220000000     0.588450000000     0.412280000000     0.337803   
C115     C      0.307300000000     0.143640000000     0.493920000000     0.265108   
C116     C      0.252380000000     0.217640000000     0.456260000000     0.342535   
C117     C      0.171150000000     0.363530000000     0.601970000000     0.337214   
C118     C      0.158560000000     0.232920000000     0.591570000000     0.338987   
C119     C      0.128840000000     0.337740000000     0.527170000000     0.255609   
C120     C      0.192950000000     0.280470000000     0.520510000000     0.339514   
C121     C      0.230670000000     0.208760000000     0.154830000000     0.340427   
C122     C      0.186330000000     0.327040000000     0.162290000000     0.332857   
C123     C      0.180510000000     0.217950000000     0.222260000000     0.262928   
C124     C      0.242430000000     0.308040000000     0.218270000000     0.340746   
C125     C      0.330260000000     0.329110000000     0.342250000000     0.342403   
C126     C      0.320820000000     0.466610000000     0.347130000000     0.337943   
C127     C      0.374950000000     0.418400000000     0.289970000000     0.262034   
C128     C      0.301760000000     0.391800000000     0.270250000000     0.343487   
C129     C      0.264020000000     0.391150000000     0.257380000000    -0.0124218  
C130     C      0.291230000000     0.366480000000     0.225150000000    -0.0128907  
C131     C      0.252870000000     0.350430000000     0.256920000000    -0.0146989  
C132     C      0.280200000000     0.325550000000     0.223430000000    -0.0148447  
C133     C      0.336070000000     0.293550000000     0.385180000000    -0.0122663  
C134     C      0.313030000000     0.263440000000     0.348060000000    -0.0136742  
C135     C      0.342690000000     0.250890000000     0.393000000000    -0.0153748  
C136     C      0.320530000000     0.221800000000     0.356700000000    -0.0128777  
C137     C      0.320840000000     0.495710000000     0.392890000000    -0.013755   
C138     C      0.305170000000     0.533810000000     0.352960000000    -0.014459   
C139     C      0.303950000000     0.514660000000     0.411030000000    -0.0158416  
C140     C      0.288000000000     0.549850000000     0.371680000000    -0.0141864  
C141     C      0.229250000000     0.283560000000     0.502580000000    -0.0149706  
C142     C      0.203590000000     0.228890000000     0.487650000000    -0.014451   
C143     C      0.239130000000     0.282430000000     0.474380000000    -0.0128545  
C144     C      0.213880000000     0.229580000000     0.459800000000    -0.0128246  
C145     C      0.241050000000     0.187960000000     0.108770000000    -0.0122989  
C146     C      0.246460000000     0.141680000000     0.147130000000    -0.013683   
C147     C      0.225730000000     0.158830000000     0.095150000000    -0.0159439  
C148     C      0.231450000000     0.110580000000     0.135010000000    -0.0139323  
C149     C      0.152060000000     0.415920000000     0.154780000000    -0.0126987  
C150     C      0.148570000000     0.372180000000     0.114530000000    -0.0167536  
C151     C      0.173330000000     0.396910000000     0.161920000000    -0.0172398  
C152     C      0.169830000000     0.352180000000     0.120430000000    -0.0144107  
C153     C      0.240350000000     0.488870000000     0.005060000000    -0.014021   
C154     C      0.215440000000     0.440290000000     0.982930000000    -0.0139917  
C155     C      0.229710000000     0.481350000000     0.032290000000    -0.0138912  
C156     C      0.204620000000     0.432900000000     0.010050000000    -0.0140582  
C157     C      0.175810000000     0.173490000000     0.611760000000    -0.0151425  
C158     C      0.137140000000     0.187420000000     0.620030000000    -0.0158955  
C159     C      0.170650000000     0.128990000000     0.607810000000    -0.0131765  
C160     C      0.132450000000     0.142590000000     0.616520000000    -0.0103519  
C161     C      0.194570000000     0.415030000000     0.621960000000    -0.0146668  
C162     C      0.158650000000     0.399790000000     0.642370000000    -0.0155505  
C163     C      0.203480000000     0.419510000000     0.650530000000    -0.0135861  
C164     C      0.168370000000     0.403810000000     0.670440000000    -0.0137623  
C165     C      0.304530000000     0.294590000000     0.873200000000    -0.0158551  
C166     C      0.266250000000     0.282390000000     0.883960000000    -0.0148697  
C167     C      0.299220000000     0.295700000000     0.843200000000    -0.0141673  
C168     C      0.261410000000     0.280030000000     0.853580000000    -0.0142905  
C169     C      0.325150000000     0.518540000000     0.893590000000    -0.0156463  
C170     C      0.290570000000     0.507310000000     0.869410000000    -0.0146552  
C171     C      0.321670000000     0.564000000000     0.891680000000    -0.0128073  
C172     C      0.286970000000     0.552600000000     0.868770000000    -0.0132302  
C173     C      0.194440000000     0.104410000000     0.753660000000    -0.0137235  
C174     C      0.262620000000     0.568560000000     0.732830000000    -0.0148596  
C175     C      0.213370000000     0.131520000000     0.747720000000    -0.0142431  
C176     C      0.283500000000     0.588690000000     0.725410000000    -0.0123498  
C177     C      0.725570000000     0.084610000000     0.206020000000    -0.0134673  
C178     C      0.704140000000     0.090750000000     0.248330000000    -0.0136838  
C179     C      0.706930000000     0.100310000000     0.189440000000    -0.0144714  
C180     C      0.728060000000     0.594990000000     0.263610000000    -0.0136531  
C181     C      0.613560000000     0.147210000000     0.089600000000    -0.0139176  
C182     C      0.615060000000     0.187470000000     0.131160000000    -0.0170441  
C183     C      0.634030000000     0.165450000000     0.078830000000    -0.0139652  
C184     C      0.635500000000     0.208240000000     0.122370000000    -0.0121069  
C185     C      0.715900000000     0.350850000000     0.141610000000    -0.0141391  
C186     C      0.720300000000     0.400280000000     0.104760000000    -0.0145315  
C187     C      0.700540000000     0.378560000000     0.156560000000    -0.0150599  
C188     C      0.704660000000     0.429250000000     0.117910000000    -0.0136174  
C189     C      0.771630000000     0.193920000000     0.025650000000    -0.0148843  
C190     C      0.750700000000     0.188640000000     0.982040000000    -0.014725   
C191     C      0.751500000000     0.184050000000     0.041370000000    -0.0130207  
C192     C      0.730990000000     0.178880000000     0.998650000000    -0.0130404  
C193     C      0.743240000000     0.281530000000     0.325760000000    -0.0140086  
C194     C      0.747400000000     0.227210000000     0.359930000000    -0.0146925  
C195     C      0.756760000000     0.309990000000     0.342800000000    -0.0145338  
C196     C      0.761350000000     0.254310000000     0.377310000000    -0.0132488  
C197     C      0.813160000000     0.531580000000     0.405690000000    -0.0162197  
C198     C      0.820910000000     0.483690000000     0.365870000000    -0.015875   
C199     C      0.818980000000     0.497070000000     0.424720000000    -0.0112265  
C200     C      0.826760000000     0.451710000000     0.386640000000    -0.0128099  
C201     C      0.709920000000     0.500490000000     0.446790000000    -0.0121499  
C202     C      0.687200000000     0.440270000000     0.445550000000    -0.0119337  
C203     C      0.705050000000     0.507930000000     0.476570000000    -0.0147478  
C204     C      0.680960000000     0.445620000000     0.475170000000    -0.0153205  
C205     C      0.653710000000     0.391220000000     0.613930000000    -0.0168467  
C206     C      0.692090000000     0.401620000000     0.603380000000    -0.013993   
C207     C      0.659380000000     0.382060000000     0.643380000000    -0.0138762  
C208     C      0.697710000000     0.394230000000     0.632870000000    -0.0144694  
C209     C      0.731630000000     0.187030000000     0.607320000000    -0.0136719  
C210     C      0.724110000000     0.133380000000     0.640920000000    -0.0153758  
C211     C      0.719090000000     0.164470000000     0.585630000000    -0.0162224  
C212     C      0.710750000000     0.110340000000     0.620450000000    -0.0130371  
C213     C      0.834720000000     0.528170000000     0.866650000000    -0.0144002  
C214     C      0.795200000000     0.522210000000     0.865540000000    -0.0142998  
C215     C      0.834050000000     0.531190000000     0.897360000000    -0.0143257  
C216     C      0.794470000000     0.528230000000     0.896260000000    -0.014209   
C217     C      0.848520000000     0.248580000000     0.880570000000    -0.0139039  
C218     C      0.828120000000     0.291140000000     0.914650000000    -0.0148175  
C219     C      0.861210000000     0.286150000000     0.873000000000    -0.0127405  
C220     C      0.841750000000     0.326960000000     0.906630000000    -0.0116776  
C221     C      0.771320000000     0.286960000000     0.779580000000    -0.0132846  
C222     C      0.748240000000     0.346160000000     0.788240000000    -0.0132502  
C223     C      0.763990000000     0.285170000000     0.750180000000    -0.0144138  
C224     C      0.740520000000     0.345680000000     0.759020000000    -0.0142666  
C225     C      0.109420000000     0.203900000000     0.543100000000    -0.0228267  
C226     C      0.094020000000     0.231380000000     0.500300000000    -0.023539   
C227     C      0.093040000000     0.227460000000     0.559450000000    -0.0236193  
C228     C      0.077600000000     0.254770000000     0.516670000000    -0.0218493  
C229     C      0.889810000000     0.133960000000     0.893970000000    -0.0268574  
C230     C      0.910940000000     0.071460000000     0.885880000000    -0.0268372  
C231     C      0.878780000000     0.128400000000     0.866740000000    -0.016974   
C232     C      0.899970000000     0.065720000000     0.858640000000    -0.0205516  
C233     C      0.005950000000     0.222750000000     0.718790000000    -0.0126547  
C234     C      0.026000000000     0.159190000000     0.728750000000    -0.0141585  
C235     C      0.000910000000     0.227230000000     0.748890000000    -0.0121137  
C236     C      0.021790000000     0.164720000000     0.758810000000    -0.0134539  
C237     C      0.843840000000     0.314470000000     0.442050000000    -0.0196243  
C238     C      0.822690000000     0.275250000000     0.408360000000    -0.0193559  
C239     C      0.840260000000     0.352860000000     0.425630000000    -0.0272184  
C240     C      0.819120000000     0.313570000000     0.391890000000    -0.0281605  
C241     C      0.100900000000     0.501890000000     0.132400000000    -0.0221169  
C242     C      0.117500000000     0.566350000000     0.147860000000    -0.0222508  
C243     C      0.080230000000     0.513910000000     0.146200000000    -0.0224136  
C244     C      0.096910000000     0.577920000000     0.162060000000    -0.0239601  
C245     C      0.963680000000     0.482290000000     0.247300000000    -0.0137053  
C246     C      0.981230000000     0.442500000000     0.284100000000    -0.013553   
C247     C      0.947010000000     0.496890000000     0.267420000000    -0.0143307  
C248     C      0.964880000000     0.457740000000     0.304320000000    -0.0140903  
C249     C      0.097760000000     0.262030000000     0.192270000000    -0.0225733  
C250     C      0.130460000000     0.299950000000     0.179360000000    -0.0187804  
C251     C      0.101650000000     0.232470000000     0.169140000000    -0.0236764  
C252     C      0.134510000000     0.269840000000     0.156620000000    -0.0265451  
C253     C      0.065640000000     0.143590000000     0.129540000000    -0.0159161  
C254     C      0.099200000000     0.128480000000     0.105560000000    -0.0134284  
C255     C      0.074970000000     0.128420000000     0.156230000000    -0.0135875  
C256     C      0.109660000000     0.115050000000     0.131800000000    -0.0133317  
C257     C      0.092610000000     0.408010000000     0.182970000000    -0.0151946  
C258     C      0.062180000000     0.366250000000     0.197830000000    -0.0134858  
C259     C      0.089140000000     0.395400000000     0.153610000000    -0.0159626  
C260     C      0.058050000000     0.352670000000     0.168840000000    -0.0166058  
C261     C      0.882540000000     0.437440000000     0.858490000000    -0.026586   
C262     C      0.906300000000     0.381130000000     0.872820000000    -0.0213759  
C263     C      0.872170000000     0.437500000000     0.886390000000    -0.0207799  
C264     C      0.895970000000     0.381020000000     0.900730000000    -0.0280021  
C265     C      0.936330000000     0.239390000000     0.899790000000    -0.0128535  
C266     C      0.969070000000     0.270590000000     0.879730000000    -0.0133512  
C267     C      0.926890000000     0.281460000000     0.903540000000    -0.0148434  
C268     C      0.958990000000     0.311970000000     0.882310000000    -0.0143734  
C269     C      0.934750000000     0.505110000000     0.871230000000    -0.0155188  
C270     C      0.971640000000     0.526290000000     0.882440000000    -0.0144157  
C271     C      0.929090000000     0.504700000000     0.901150000000    -0.0121639  
C272     C      0.966540000000     0.523400000000     0.912690000000    -0.0141192  
C273     C      0.019970000000     0.378510000000     0.021830000000    -0.0144824  
C274     C      0.003890000000     0.309050000000     0.021220000000    -0.0124188  
C275     C      0.041640000000     0.359940000000     0.016090000000    -0.0138862  
C276     C      0.025650000000     0.291230000000     0.015150000000    -0.0140809  
C277     C      0.833310000000     0.214070000000     0.337440000000    -0.0278685  
C278     C      0.854350000000     0.183170000000     0.299890000000    -0.0271944  
C279     C      0.849440000000     0.198440000000     0.357950000000    -0.023063   
C280     C      0.870640000000     0.168050000000     0.320330000000    -0.0210029  
C281     C      0.884340000000     0.306450000000     0.381970000000    -0.0133784  
C282     C      0.897670000000     0.279820000000     0.337310000000    -0.0156513  
C283     C      0.900430000000     0.280040000000     0.396610000000    -0.0160565  
C284     C      0.913440000000     0.253320000000     0.352540000000    -0.0147127  
C285     C      0.876150000000     0.568350000000     0.367540000000    -0.0157477  
C286     C      0.878610000000     0.520030000000     0.405310000000    -0.0119513  
C287     C      0.897340000000     0.587250000000     0.375190000000    -0.0133269  
C288     C      0.899920000000     0.537130000000     0.414100000000    -0.015874   
C289     C      0.143740000000     0.491800000000     0.589840000000    -0.0189824  
C290     C      0.126040000000     0.512460000000     0.632920000000    -0.0215214  
C291     C      0.126160000000     0.461190000000     0.584630000000    -0.0260099  
C292     C      0.108340000000     0.482090000000     0.627650000000    -0.0267313  
C293     C      0.072790000000     0.120200000000     0.585630000000    -0.014756   
C294     C      0.035340000000     0.147990000000     0.585390000000    -0.0164382  
C295     C      0.070900000000     0.112760000000     0.555310000000    -0.0141737  
C296     C      0.034290000000     0.139380000000     0.555110000000    -0.0120377  
C297     C      0.059030000000     0.401100000000     0.606590000000    -0.0140138  
C298     C      0.080860000000     0.364460000000     0.571940000000    -0.0105744  
C299     C      0.071380000000     0.379910000000     0.629130000000    -0.0141053  
C300     C      0.093850000000     0.345400000000     0.594530000000    -0.0171425  
C301     C      0.967570000000     0.089370000000     0.448450000000    -0.0139588  
C302     C      0.941890000000     0.069520000000     0.484670000000    -0.0142087  
C303     C      0.022030000000     0.550000000000     0.463030000000    -0.0131012  
C304     C      0.000330000000     0.529500000000     0.502600000000    -0.00932683 
C305     C      0.627570000000     0.353670000000     0.100440000000    -0.0250317  
C306     C      0.616280000000     0.325960000000     0.145300000000    -0.0238286  
C307     C      0.646340000000     0.374510000000     0.113970000000    -0.0215275  
C308     C      0.635070000000     0.346850000000     0.158760000000    -0.0245248  
C309     C      0.331510000000     0.095960000000     0.382070000000    -0.0229674  
C310     C      0.361550000000     0.140140000000     0.367740000000    -0.0239917  
C311     C      0.338880000000     0.098940000000     0.411420000000    -0.0248827  
C312     C      0.368730000000     0.143640000000     0.397130000000    -0.0235846  
C313     C      0.485380000000     0.264620000000     0.281570000000    -0.0135508  
C314     C      0.503110000000     0.201750000000     0.296680000000    -0.0132691  
C315     C      0.492580000000     0.257460000000     0.252510000000    -0.0144254  
C316     C      0.510940000000     0.193580000000     0.267980000000    -0.0147849  
C317     C      0.662080000000     0.187260000000     0.609790000000    -0.0231066  
C318     C      0.662910000000     0.262540000000     0.609780000000    -0.022631   
C319     C      0.639980000000     0.188150000000     0.622240000000    -0.0231793  
C320     C      0.640800000000     0.263400000000     0.622280000000    -0.0199399  
C321     C      0.394390000000     0.466290000000     0.429460000000    -0.0273014  
C322     C      0.371570000000     0.419720000000     0.402440000000    -0.0241275  
C323     C      0.403600000000     0.483560000000     0.403350000000    -0.020383   
C324     C      0.380450000000     0.437550000000     0.376330000000    -0.0228938  
C325     C      0.401540000000     0.321720000000     0.366490000000    -0.0136713  
C326     C      0.397400000000     0.275040000000     0.404770000000    -0.0113818  
C327     C      0.419870000000     0.343490000000     0.380360000000    -0.0169075  
C328     C      0.415590000000     0.294480000000     0.420170000000    -0.0165274  
C329     C      0.438890000000     0.583470000000     0.418250000000    -0.0133556  
C330     C      0.453500000000     0.549830000000     0.376200000000    -0.0149231  
C331     C      0.456370000000     0.563530000000     0.434760000000    -0.0156331  
C332     C      0.470480000000     0.529790000000     0.393660000000    -0.0149303  
C333     C      0.524160000000     0.305020000000     0.511910000000    -0.0145325  
C334     C      0.545700000000     0.367910000000     0.501530000000    -0.0150491  
C335     C      0.514310000000     0.308280000000     0.483840000000    -0.0129674  
C336     C      0.534900000000     0.370100000000     0.473940000000    -0.0126219  
C337     C      0.628470000000     0.577490000000     0.648160000000    -0.0237055  
C338     C      0.616280000000     0.506300000000     0.641910000000    -0.025145   
C339     C      0.643060000000     0.563920000000     0.671040000000    -0.020354   
C340     C      0.631010000000     0.492870000000     0.664680000000    -0.0183757  
C341     C      0.572210000000     0.191800000000     0.647260000000    -0.0126268  
C342     C      0.574850000000     0.148160000000     0.606640000000    -0.0152073  
C343     C      0.587850000000     0.165380000000     0.662580000000    -0.0164035  
C344     C      0.590000000000     0.119710000000     0.621390000000    -0.0138265  
C345     C      0.587940000000     0.399360000000     0.677420000000    -0.0175242  
C346     C      0.556720000000     0.423780000000     0.651140000000    -0.0148929  
C347     C      0.599830000000     0.390810000000     0.651090000000    -0.0115176  
C348     C      0.568770000000     0.417950000000     0.624820000000    -0.013259   
C349     C      0.326740000000     0.405460000000     0.849330000000    -0.023835   
C350     C      0.351140000000     0.353190000000     0.830200000000    -0.0199521  
C351     C      0.345200000000     0.423610000000     0.865130000000    -0.0237771  
C352     C      0.369530000000     0.371780000000     0.845810000000    -0.024948   
C353     C      0.498140000000     0.526240000000     0.769900000000    -0.0148862  
C354     C      0.518310000000     0.462830000000     0.783080000000    -0.0150961  
C355     C      0.486930000000     0.524580000000     0.797200000000    -0.0127268  
C356     C      0.506380000000     0.462620000000     0.809910000000    -0.0125976  
C357     C      0.593160000000     0.439810000000     0.135930000000    -0.0196608  
C358     C      0.623820000000     0.487420000000     0.135190000000    -0.0211015  
C359     C      0.578780000000     0.473590000000     0.146070000000    -0.0275456  
C360     C      0.609440000000     0.521360000000     0.145150000000    -0.021431   
C361     C      0.563720000000     0.090020000000     0.117620000000    -0.014485   
C362     C      0.526350000000     0.113630000000     0.108790000000    -0.0146394  
C363     C      0.561140000000     0.101700000000     0.147330000000    -0.0137244  
C364     C      0.524090000000     0.123950000000     0.138630000000    -0.0134016  
C365     C      0.539850000000     0.373170000000     0.135280000000    -0.0137902  
C366     C      0.564120000000     0.333280000000     0.104150000000    -0.0146148  
C367     C      0.529370000000     0.391410000000     0.110280000000    -0.0160338  
C368     C      0.552870000000     0.352220000000     0.079990000000    -0.0150863  
C369     C      0.354680000000     0.151280000000     0.862680000000    -0.0229143  
C370     C      0.343040000000     0.220370000000     0.849230000000    -0.0253679  
C371     C      0.364570000000     0.145320000000     0.834800000000    -0.0208855  
C372     C      0.352560000000     0.214110000000     0.821120000000    -0.0216538  
C373     C      0.384590000000     0.537050000000     0.852500000000    -0.0135377  
C374     C      0.388960000000     0.491070000000     0.890770000000    -0.0116065  
C375     C      0.401330000000     0.566140000000     0.863130000000    -0.0138071  
C376     C      0.405440000000     0.518130000000     0.904160000000    -0.0160011  
C377     C      0.400030000000     0.260450000000     0.867140000000    -0.0160776  
C378     C      0.433560000000     0.273390000000     0.892870000000    -0.0147175  
C379     C      0.410580000000     0.275000000000     0.841280000000    -0.0143217  
C380     C      0.443650000000     0.290640000000     0.867170000000    -0.0139692  
C381     C      0.506240000000     0.539320000000     0.949160000000    -0.0128393  
C382     C      0.484700000000     0.086120000000     0.952520000000    -0.0135684  
C383     C      0.510960000000     0.526650000000     0.978230000000    -0.0146714  
C384     C      0.491940000000     0.081460000000     0.981820000000    -0.014052   
C385     C      0.454200000000     0.711750000000     0.896380000000     0.337872   
C386     C      0.399340000000     0.079140000000     0.875430000000     0.333657   
C387     C      0.486510000000     0.602770000000     0.941720000000     0.341972   
C388     C      0.426510000000     0.668240000000     0.980730000000     0.264746   
C389     C      0.520500000000     0.916610000000     0.071600000000     0.341122   
C390     C      0.566500000000     0.562060000000     0.093860000000     0.334287   
C391     C      0.573160000000     0.978190000000     0.017190000000     0.260026   
C392     C      0.504370000000     0.023180000000     0.008270000000     0.34286    
C393     C      0.464750000000     0.840320000000     0.830530000000     0.336101   
C394     C      0.428490000000     0.963810000000     0.816160000000     0.340115   
C395     C      0.490670000000     0.945290000000     0.773060000000     0.343299   
C396     C      0.429320000000     0.864200000000     0.749390000000     0.263361   
C397     C      0.614700000000     0.950050000000     0.678240000000     0.343533   
C398     C      0.564590000000     0.599770000000     0.679620000000     0.33803    
C399     C      0.563890000000     0.000330000000     0.727730000000     0.34055    
C400     C      0.637520000000     0.050700000000     0.736370000000     0.264179   
C401     C      0.415940000000     0.887510000000     0.438220000000     0.338193   
C402     C      0.429360000000     0.015200000000     0.448930000000     0.34333    
C403     C      0.405350000000     0.956760000000     0.527360000000     0.262573   
C404     C      0.468630000000     0.901940000000     0.496640000000     0.339284   
C405     C      0.556830000000     0.714370000000     0.603530000000     0.338191   
C406     C      0.588590000000     0.839650000000     0.611480000000     0.336407   
C407     C      0.596150000000     0.763100000000     0.531180000000     0.266278   
C408     C      0.531510000000     0.827920000000     0.551990000000     0.342829   
C409     C      0.438850000000     0.618550000000     0.374440000000     0.339401   
C410     C      0.420080000000     0.756920000000     0.375710000000     0.341984   
C411     C      0.456310000000     0.708580000000     0.303700000000     0.343498   
C412     C      0.384430000000     0.666600000000     0.317650000000     0.259185   
C413     C      0.562470000000     0.679620000000     0.167350000000     0.341165   
C414     C      0.533190000000     0.805320000000     0.145540000000     0.336915   
C415     C      0.517470000000     0.731650000000     0.228000000000     0.342381   
C416     C      0.581690000000     0.800480000000     0.216680000000     0.260405   
C417     C      0.020310000000     0.946040000000     0.572650000000     0.339538   
C418     C      0.083510000000     0.583240000000     0.564610000000     0.3453     
C419     C      0.054100000000     0.945290000000     0.489800000000     0.258198   
C420     C      0.990420000000     0.015920000000     0.491020000000     0.340288   
C421     C      0.895680000000     0.061450000000     0.368370000000     0.337478   
C422     C      0.956920000000     0.724180000000     0.413330000000     0.337887   
C423     C      0.913970000000     0.701670000000     0.486470000000     0.258351   
C424     C      0.975680000000     0.614770000000     0.468360000000     0.340628   
C425     C      0.931610000000     0.829300000000     0.922670000000     0.341797   
C426     C      0.950740000000     0.961060000000     0.916970000000     0.335667   
C427     C      0.896050000000     0.929000000000     0.978210000000     0.257506   
C428     C      0.965170000000     0.878120000000     0.995190000000     0.343081   
C429     C      0.037460000000     0.695190000000     0.123560000000     0.339854   
C430     C      0.067230000000     0.823520000000     0.108300000000     0.341772   
C431     C      0.084090000000     0.706490000000     0.054030000000     0.263345   
C432     C      0.021140000000     0.785690000000     0.047020000000     0.342493   
C433     C      0.095770000000     0.937040000000     0.176960000000     0.343036   
C434     C      0.041260000000     0.572960000000     0.194860000000     0.343014   
C435     C      0.083040000000     0.998470000000     0.255660000000     0.338486   
C436     C      0.149510000000     0.020350000000     0.227830000000     0.26042    
C437     C      0.947180000000     0.958320000000     0.326130000000     0.339793   
C438     C      0.984940000000     0.841390000000     0.347450000000     0.338825   
C439     C      0.975460000000     0.879720000000     0.256350000000     0.264246   
C440     C      0.021680000000     0.952570000000     0.315360000000     0.342838   
C441     C      0.949550000000     0.567160000000     0.851340000000     0.340663   
C442     C      0.929000000000     0.695270000000     0.862990000000     0.340383   
C443     C      0.977030000000     0.677410000000     0.792970000000     0.341606   
C444     C      0.911350000000     0.620110000000     0.780710000000     0.262751   
C445     C      0.042190000000     0.829090000000     0.641150000000     0.336334   
C446     C      0.065980000000     0.697890000000     0.637150000000     0.337295   
C447     C      0.096260000000     0.789740000000     0.698580000000     0.265499   
C448     C      0.027370000000     0.733220000000     0.713210000000     0.342736   
C449     C      0.834450000000     0.842730000000     0.845970000000     0.337691   
C450     C      0.817710000000     0.973300000000     0.838890000000     0.34337    
C451     C      0.843560000000     0.918780000000     0.760290000000     0.264229   
C452     C      0.779440000000     0.864740000000     0.789610000000     0.338773   
C453     C      0.700640000000     0.716920000000     0.644940000000     0.339711   
C454     C      0.695100000000     0.849280000000     0.635820000000     0.343114   
C455     C      0.651250000000     0.781080000000     0.702010000000     0.253771   
C456     C      0.722140000000     0.813680000000     0.717390000000     0.342042   
C457     C      0.822970000000     0.851850000000     0.375160000000     0.335697   
C458     C      0.841910000000     0.990760000000     0.349920000000     0.334898   
C459     C      0.802450000000     0.967460000000     0.421950000000     0.339736   
C460     C      0.876720000000     0.913760000000     0.416140000000     0.258035   
C461     C      0.673990000000     0.590400000000     0.588240000000     0.33844    
C462     C      0.704170000000     0.957550000000     0.556270000000     0.340972   
C463     C      0.670610000000     0.062180000000     0.502160000000     0.260966   
C464     C      0.740610000000     0.013500000000     0.492480000000     0.34175    
C465     C      0.813000000000     0.583500000000     0.920330000000     0.342949   
C466     C      0.821260000000     0.722930000000     0.913930000000     0.338244   
C467     C      0.772490000000     0.674150000000     0.976290000000     0.342379   
C468     C      0.845430000000     0.653950000000     0.990660000000     0.264088   
C469     C      0.675760000000     0.844050000000     0.080270000000     0.340802   
C470     C      0.664300000000     0.699670000000     0.096380000000     0.337478   
C471     C      0.632110000000     0.760770000000     0.028180000000     0.259659   
C472     C      0.710340000000     0.746430000000     0.031130000000     0.340959   
C473     C      0.660940000000     0.578170000000     0.166280000000     0.339073   
C474     C      0.649690000000     0.975120000000     0.133620000000     0.333101   
C475     C      0.669830000000     0.076830000000     0.190640000000     0.34032    
C476     C      0.597450000000     0.013480000000     0.191960000000     0.25503    
C477     C      0.805970000000     0.701770000000     0.342530000000     0.338826   
C478     C      0.802250000000     0.102620000000     0.295630000000     0.339134   
C479     C      0.781730000000     0.595290000000     0.290410000000     0.339497   
C480     C      0.858000000000     0.637260000000     0.298910000000     0.261927   
C481     C      0.302650000000     0.108700000000     0.826900000000     0.336949   
C482     C      0.323690000000     0.728690000000     0.829430000000     0.34335    
C483     C      0.367020000000     0.634090000000     0.783870000000     0.258931   
C484     C      0.298040000000     0.636230000000     0.758980000000     0.343317   
C485     C      0.167100000000     0.596840000000     0.664210000000     0.339422   
C486     C      0.154940000000     0.956880000000     0.647960000000     0.342585   
C487     C      0.182170000000     0.052970000000     0.721090000000     0.340186   
C488     C      0.115200000000     0.009190000000     0.716080000000     0.26063    
C489     C      0.329000000000     0.844130000000     0.903760000000     0.339662   
C490     C      0.318140000000     0.980420000000     0.890650000000     0.344556   
C491     C      0.303260000000     0.928850000000     0.976150000000     0.338525   
C492     C      0.372600000000     0.932530000000     0.952630000000     0.264874   
C493     C      0.177000000000     0.972890000000     0.087780000000     0.341667   
C494     C      0.221570000000     0.085810000000     0.090060000000     0.336411   
C495     C      0.243790000000     0.969850000000     0.045400000000     0.342147   
C496     C      0.187490000000     0.053060000000     0.010030000000     0.265681   
C497     C      0.327190000000     0.714570000000     0.401650000000     0.338946   
C498     C      0.276990000000     0.087510000000     0.419990000000     0.337298   
C499     C      0.325860000000     0.647700000000     0.487630000000     0.264128   
C500     C      0.263840000000     0.706220000000     0.449930000000     0.343023   
C501     C      0.164170000000     0.846920000000     0.569720000000     0.338845   
C502     C      0.162470000000     0.709870000000     0.586390000000     0.341508   
C503     C      0.122680000000     0.768330000000     0.513240000000     0.260827   
C504     C      0.196390000000     0.752280000000     0.508220000000     0.339436   
C505     C      0.188940000000     0.712520000000     0.165330000000     0.336794   
C506     C      0.170350000000     0.854680000000     0.155430000000     0.338527   
C507     C      0.138430000000     0.774010000000     0.217560000000     0.259796   
C508     C      0.214060000000     0.812620000000     0.224160000000     0.341763   
C509     C      0.323740000000     0.842000000000     0.340820000000     0.338142   
C510     C      0.296580000000     0.971860000000     0.351020000000     0.336049   
C511     C      0.346840000000     0.949410000000     0.283170000000     0.258179   
C512     C      0.276700000000     0.888590000000     0.278810000000     0.342962   
C513     C      0.238330000000     0.876390000000     0.273650000000    -0.0136906  
C514     C      0.263000000000     0.865160000000     0.234680000000    -0.013824   
C515     C      0.227950000000     0.835680000000     0.268230000000    -0.0138865  
C516     C      0.252510000000     0.824500000000     0.229150000000    -0.0139543  
C517     C      0.336150000000     0.811630000000     0.383100000000    -0.013487   
C518     C      0.321630000000     0.768520000000     0.344200000000    -0.0128451  
C519     C      0.348840000000     0.774930000000     0.392280000000    -0.0146897  
C520     C      0.335240000000     0.733950000000     0.354630000000    -0.0156124  
C521     C      0.298260000000     0.998670000000     0.397210000000    -0.012921   
C522     C      0.276870000000     0.034130000000     0.360420000000    -0.0150043  
C523     C      0.282250000000     0.013850000000     0.417880000000    -0.0159376  
C524     C      0.261570000000     0.048360000000     0.382330000000    -0.0142048  
C525     C      0.232970000000     0.765790000000     0.493520000000    -0.0149817  
C526     C      0.213480000000     0.702690000000     0.478580000000    -0.0148052  
C527     C      0.244350000000     0.766260000000     0.466230000000    -0.0129785  
C528     C      0.224770000000     0.705290000000     0.451450000000    -0.0126434  
C529     C      0.199630000000     0.674700000000     0.124420000000    -0.0143288  
C530     C      0.188570000000     0.638080000000     0.165790000000    -0.0139038  
C531     C      0.182700000000     0.653080000000     0.107740000000    -0.0148438  
C532     C      0.171080000000     0.616460000000     0.150310000000    -0.0144823  
C533     C      0.158610000000     0.959020000000     0.130820000000    -0.0121684  
C534     C      0.155420000000     0.911360000000     0.092940000000    -0.0114896  
C535     C      0.169580000000     0.927700000000     0.148560000000    -0.0165701  
C536     C      0.166370000000     0.877950000000     0.108810000000    -0.0162909  
C537     C      0.292590000000     0.969130000000     0.015330000000    -0.0151657  
C538     C      0.268820000000     0.913330000000     0.996530000000    -0.0153637  
C539     C      0.282620000000     0.961950000000     0.042960000000    -0.0120626  
C540     C      0.259340000000     0.908720000000     0.024780000000    -0.0122467  
C541     C      0.173030000000     0.641940000000     0.600780000000    -0.0151174  
C542     C      0.159620000000     0.692860000000     0.634790000000    -0.0151222  
C543     C      0.160920000000     0.609170000000     0.615670000000    -0.0133904  
C544     C      0.148380000000     0.658810000000     0.649860000000    -0.0134636  
C545     C      0.182820000000     0.894490000000     0.600080000000    -0.0141064  
C546     C      0.146250000000     0.909570000000     0.583950000000    -0.0143963  
C547     C      0.175680000000     0.899950000000     0.629420000000    -0.0144251  
C548     C      0.138650000000     0.913780000000     0.613070000000    -0.0129323  
C549     C      0.347070000000     0.791090000000     0.877560000000    -0.0145586  
C550     C      0.308130000000     0.786650000000     0.886080000000    -0.0142141  
C551     C      0.343200000000     0.787240000000     0.847280000000    -0.0112089  
C552     C      0.304310000000     0.780330000000     0.855790000000    -0.0140581  
C553     C      0.321110000000     0.010520000000     0.845030000000    -0.0130968  
C554     C      0.294150000000     0.035970000000     0.878140000000    -0.0127106  
C555     C      0.327610000000     0.053910000000     0.838820000000    -0.0154284  
C556     C      0.301180000000     0.079020000000     0.872580000000    -0.0154293  
C557     C      0.246120000000     0.638160000000     0.737220000000    -0.0151644  
C558     C      0.216290000000     0.043300000000     0.744800000000    -0.0135667  
C559     C      0.267690000000     0.656500000000     0.730410000000    -0.0126311  
C560     C      0.235570000000     0.069670000000     0.739010000000    -0.0144838  
C561     C      0.768810000000     0.556870000000     0.251000000000    -0.0146285  
C562     C      0.743380000000     0.582840000000     0.286040000000    -0.0143092  
C563     C      0.753280000000     0.568970000000     0.228780000000    -0.0134153  
C564     C      0.685370000000     0.106410000000     0.231950000000    -0.0143428  
C565     C      0.646630000000     0.601460000000     0.122530000000    -0.0118103  
C566     C      0.650580000000     0.649510000000     0.160560000000    -0.0136557  
C567     C      0.661000000000     0.626970000000     0.104680000000    -0.0162352  
C568     C      0.664990000000     0.676390000000     0.143600000000    -0.0154474  
C569     C      0.683680000000     0.888110000000     0.119260000000    -0.0136097  
C570     C      0.670840000000     0.917720000000     0.076170000000    -0.0129904  
C571     C      0.665380000000     0.907260000000     0.134750000000    -0.0144903  
C572     C      0.652280000000     0.937570000000     0.090770000000    -0.015356   
C573     C      0.736760000000     0.704540000000     0.974600000000    -0.0137537  
C574     C      0.750820000000     0.675910000000     0.017850000000    -0.0139548  
C575     C      0.731520000000     0.743970000000     0.989100000000    -0.0141847  
C576     C      0.745870000000     0.715420000000     0.032290000000    -0.0138483  
C577     C      0.797500000000     0.773370000000     0.333900000000    -0.0140884  
C578     C      0.802160000000     0.748850000000     0.380950000000    -0.0142476  
C579     C      0.814730000000     0.805030000000     0.338030000000    -0.0144192  
C580     C      0.819570000000     0.779790000000     0.385970000000    -0.0137604  
C581     C      0.824330000000     0.083530000000     0.334340000000    -0.0136762  
C582     C      0.815550000000     0.032980000000     0.297110000000    -0.0154398  
C583     C      0.845540000000     0.062410000000     0.337920000000    -0.0139242  
C584     C      0.836850000000     0.012620000000     0.302600000000    -0.0131986  
C585     C      0.790590000000     0.019030000000     0.454690000000    -0.0139962  
C586     C      0.764170000000     0.978030000000     0.429160000000    -0.0136356  
C587     C      0.778550000000     0.011550000000     0.480980000000    -0.0141495  
C588     C      0.752090000000     0.969540000000     0.455210000000    -0.0139881  
C589     C      0.682790000000     0.899440000000     0.571770000000    -0.0127961  
C590     C      0.721360000000     0.902780000000     0.581760000000    -0.0128428  
C591     C      0.677960000000     0.892870000000     0.601770000000    -0.0145071  
C592     C      0.717080000000     0.898970000000     0.611890000000    -0.0138122  
C593     C      0.703760000000     0.684600000000     0.600080000000    -0.013569   
C594     C      0.704280000000     0.642930000000     0.641580000000    -0.0140984  
C595     C      0.684610000000     0.661680000000     0.589200000000    -0.0151382  
C596     C      0.685130000000     0.618920000000     0.631900000000    -0.0134027  
C597     C      0.837640000000     0.028670000000     0.860300000000    -0.0120282  
C598     C      0.798520000000     0.022840000000     0.867290000000    -0.013814   
C599     C      0.840930000000     0.030980000000     0.890750000000    -0.0158784  
C600     C      0.801680000000     0.027410000000     0.897860000000    -0.014579   
C601     C      0.829050000000     0.745930000000     0.867640000000    -0.0159871  
C602     C      0.823310000000     0.795970000000     0.905820000000    -0.0153581  
C603     C      0.846200000000     0.773620000000     0.856380000000    -0.0127078  
C604     C      0.840390000000     0.822610000000     0.893400000000    -0.0128488  
C605     C      0.760250000000     0.804820000000     0.772920000000    -0.0133937  
C606     C      0.741910000000     0.870880000000     0.775850000000    -0.0131424  
C607     C      0.755000000000     0.801490000000     0.742890000000    -0.0144491  
C608     C      0.735910000000     0.868500000000     0.745980000000    -0.0149018  
C609     C      0.103630000000     0.762300000000     0.602390000000    -0.0231564  
C610     C      0.075990000000     0.786150000000     0.569810000000    -0.0224959  
C611     C      0.111250000000     0.805600000000     0.606100000000    -0.0210645  
C612     C      0.083710000000     0.829420000000     0.573440000000    -0.0222354  
C613     C      0.874750000000     0.665370000000     0.911500000000    -0.0224589  
C614     C      0.891100000000     0.596820000000     0.912370000000    -0.0242635  
C615     C      0.871600000000     0.661800000000     0.880990000000    -0.0211049  
C616     C      0.888440000000     0.593730000000     0.881720000000    -0.023482   
C617     C      0.995800000000     0.743360000000     0.741930000000    -0.0150047  
C618     C      0.013610000000     0.675540000000     0.739240000000    -0.012179   
C619     C      0.993430000000     0.737890000000     0.772480000000    -0.0157841  
C620     C      0.011520000000     0.671180000000     0.769800000000    -0.0125531  
C621     C      0.908390000000     0.809450000000     0.371280000000    -0.0239016  
C622     C      0.878340000000     0.831470000000     0.341880000000    -0.0222133  
C623     C      0.922350000000     0.842380000000     0.359120000000    -0.0223677  
C624     C      0.892270000000     0.864420000000     0.329680000000    -0.0229589  
C625     C      0.168040000000     0.127780000000     0.125240000000    -0.0270952  
C626     C      0.159570000000     0.171370000000     0.085340000000    -0.023514   
C627     C      0.169690000000     0.165270000000     0.143090000000    -0.0238756  
C628     C      0.160870000000     0.208690000000     0.103310000000    -0.0269475  
C629     C      0.051780000000     0.019120000000     0.281190000000    -0.0151523  
C630     C      0.071350000000     0.952470000000     0.291130000000    -0.0152499  
C631     C      0.041840000000     0.015630000000     0.309220000000    -0.0117994  
C632     C      0.060640000000     0.952460000000     0.318740000000    -0.0112752  
C633     C      0.096570000000     0.724180000000     0.150500000000    -0.0247478  
C634     C      0.123090000000     0.769570000000     0.128450000000    -0.0223858  
C635     C      0.113930000000     0.693070000000     0.155570000000    -0.0204658  
C636     C      0.140340000000     0.738320000000     0.133490000000    -0.0197261  
C637     C      0.034580000000     0.676640000000     0.171800000000    -0.0159538  
C638     C      0.021690000000     0.629560000000     0.136290000000    -0.0151414  
C639     C      0.048730000000     0.643880000000     0.183650000000    -0.0125114  
C640     C      0.035320000000     0.595690000000     0.147930000000    -0.013329   
C641     C      0.104870000000     0.879450000000     0.147270000000    -0.0178983  
C642     C      0.067850000000     0.888650000000     0.164580000000    -0.0141887  
C643     C      0.096050000000     0.871760000000     0.118870000000    -0.0116321  
C644     C      0.059280000000     0.883220000000     0.136110000000    -0.0131043  
C645     C      0.890050000000     0.958970000000     0.901760000000    -0.0181374  
C646     C      0.894320000000     0.942400000000     0.852670000000    -0.0214612  
C647     C      0.873060000000     0.926420000000     0.904250000000    -0.028484   
C648     C      0.877470000000     0.909680000000     0.855290000000    -0.0222631  
C649     C      0.907550000000     0.753410000000     0.878240000000    -0.0133556  
C650     C      0.933600000000     0.721560000000     0.909250000000    -0.0133737  
C651     C      0.918000000000     0.794490000000     0.882210000000    -0.0139697  
C652     C      0.945110000000     0.761450000000     0.912790000000    -0.0140218  
C653     C      0.968820000000     0.003980000000     0.851900000000    -0.0152089  
C654     C      0.981680000000     0.046790000000     0.889360000000    -0.0142637  
C655     C      0.952190000000     0.984720000000     0.870020000000    -0.013503   
C656     C      0.965720000000     0.028290000000     0.908950000000    -0.0151531  
C657     C      0.002360000000     0.870320000000     0.009790000000    -0.0115285  
C658     C      0.973100000000     0.840270000000     0.037060000000    -0.0133576  
C659     C      0.013060000000     0.829180000000     0.007800000000    -0.0146593  
C660     C      0.983700000000     0.798930000000     0.035410000000    -0.0156272  
C661     C      0.856600000000     0.721640000000     0.435780000000    -0.0258995  
C662     C      0.862820000000     0.679210000000     0.394700000000    -0.0267501  
C663     C      0.873230000000     0.751690000000     0.425870000000    -0.0214624  
C664     C      0.879150000000     0.709640000000     0.384620000000    -0.0193343  
C665     C      0.984670000000     0.767870000000     0.355270000000    -0.0150095  
C666     C      0.986630000000     0.815060000000     0.394210000000    -0.0176486  
C667     C      0.965240000000     0.747420000000     0.367330000000    -0.0135727  
C668     C      0.967410000000     0.795100000000     0.407310000000    -0.0129355  
C669     C      0.919460000000     0.972670000000     0.359330000000    -0.0127941  
C670     C      0.927790000000     0.021940000000     0.320830000000    -0.0157231  
C671     C      0.896890000000     0.988700000000     0.359130000000    -0.0135074  
C672     C      0.904940000000     0.036890000000     0.322770000000    -0.0119846  
C673     C      0.100190000000     0.030090000000     0.623000000000    -0.0255915  
C674     C      0.118750000000     0.030730000000     0.578290000000    -0.0236331  
C675     C      0.082670000000     0.003890000000     0.610950000000    -0.0224582  
C676     C      0.101460000000     0.003900000000     0.566410000000    -0.0258433  
C677     C      0.083170000000     0.632740000000     0.627070000000    -0.0165797  
C678     C      0.058960000000     0.666150000000     0.593060000000    -0.0140025  
C679     C      0.097860000000     0.620580000000     0.603900000000    -0.0130127  
C680     C      0.074490000000     0.654990000000     0.570740000000    -0.0136538  
C681     C      0.029810000000     0.933310000000     0.620420000000    -0.0132113  
C682     C      0.006400000000     0.885730000000     0.596030000000    -0.00945268 
C683     C      0.045620000000     0.899750000000     0.626610000000    -0.0148821  
C684     C      0.021600000000     0.850930000000     0.601570000000    -0.0153366  
C685     C      0.012790000000     0.592490000000     0.464080000000    -0.0133707  
C686     C      0.990610000000     0.571590000000     0.504250000000    -0.0169356  
C687     C      0.977070000000     0.047130000000     0.449000000000    -0.0140544  
C688     C      0.951890000000     0.027560000000     0.485850000000    -0.0140021  
C689     C      0.619360000000     0.763970000000     0.140380000000    -0.0228948  
C690     C      0.594460000000     0.776050000000     0.101980000000    -0.0222414  
C691     C      0.628910000000     0.805840000000     0.136250000000    -0.0216731  
C692     C      0.603660000000     0.818190000000     0.098120000000    -0.0207844  
C693     C      0.356540000000     0.592470000000     0.389720000000    -0.0209785  
C694     C      0.376380000000     0.657530000000     0.391030000000    -0.0196342  
C695     C      0.363050000000     0.583930000000     0.418930000000    -0.0276492  
C696     C      0.382750000000     0.649280000000     0.420290000000    -0.0247242  
C697     C      0.465460000000     0.731120000000     0.257600000000    -0.0139441  
C698     C      0.493230000000     0.728100000000     0.293840000000    -0.0137439  
C699     C      0.480710000000     0.711120000000     0.237830000000    -0.0137015  
C700     C      0.508490000000     0.708260000000     0.273990000000    -0.0139011  
C701     C      0.626080000000     0.698070000000     0.658460000000    -0.0245692  
C702     C      0.646490000000     0.744800000000     0.628620000000    -0.0201902  
C703     C      0.607360000000     0.727220000000     0.658090000000    -0.0235771  
C704     C      0.627790000000     0.773870000000     0.628160000000    -0.0233988  
C705     C      0.366380000000     0.989090000000     0.360240000000    -0.0207816  
C706     C      0.355730000000     0.975740000000     0.408130000000    -0.0212876  
C707     C      0.385020000000     0.960100000000     0.363400000000    -0.0266169  
C708     C      0.374280000000     0.946600000000     0.411210000000    -0.0244578  
C709     C      0.407430000000     0.788440000000     0.417800000000    -0.0150837  
C710     C      0.430150000000     0.827240000000     0.384330000000    -0.0149757  
C711     C      0.395570000000     0.827510000000     0.424070000000    -0.0134258  
C712     C      0.417320000000     0.864850000000     0.390730000000    -0.0122034  
C713     C      0.412270000000     0.062190000000     0.389390000000    -0.0136261  
C714     C      0.450730000000     0.077510000000     0.396900000000    -0.0144135  
C715     C      0.408810000000     0.061070000000     0.419830000000    -0.0123158  
C716     C      0.447390000000     0.073390000000     0.427470000000    -0.0139089  
C717     C      0.494920000000     0.825730000000     0.534510000000    -0.0138719  
C718     C      0.513920000000     0.891820000000     0.539470000000    -0.0139346  
C719     C      0.487480000000     0.838400000000     0.506450000000    -0.0138646  
C720     C      0.506030000000     0.904570000000     0.511530000000    -0.0141642  
C721     C      0.642790000000     0.061830000000     0.613460000000    -0.0248681  
C722     C      0.619460000000     0.010910000000     0.591070000000    -0.0245949  
C723     C      0.662290000000     0.040200000000     0.602490000000    -0.0217896  
C724     C      0.638990000000     0.989040000000     0.580250000000    -0.024445   
C725     C      0.538750000000     0.681740000000     0.642150000000    -0.0149988  
C726     C      0.561030000000     0.641140000000     0.611000000000    -0.0148883  
C727     C      0.551430000000     0.666910000000     0.666490000000    -0.01374    
C728     C      0.574220000000     0.625650000000     0.634630000000    -0.0139954  
C729     C      0.628230000000     0.911230000000     0.639330000000    -0.0168697  
C730     C      0.609890000000     0.876480000000     0.676560000000    -0.0159477  
C731     C      0.611080000000     0.898920000000     0.619170000000    -0.0142563  
C732     C      0.591740000000     0.864010000000     0.658110000000    -0.0130852  
C733     C      0.380630000000     0.844480000000     0.798590000000    -0.0203147  
C734     C      0.405430000000     0.810760000000     0.830850000000    -0.0187275  
C735     C      0.376200000000     0.877320000000     0.819460000000    -0.0254961  
C736     C      0.400890000000     0.843240000000     0.851970000000    -0.030257   
C737     C      0.526590000000     0.980740000000     0.722360000000    -0.0140087  
C738     C      0.546320000000     0.965440000000     0.765530000000    -0.014574   
C739     C      0.506840000000     0.989970000000     0.738910000000    -0.0134139  
C740     C      0.526180000000     0.974040000000     0.781600000000    -0.0133592  
C741     C      0.565950000000     0.920260000000     0.156370000000    -0.0244636  
C742     C      0.602330000000     0.921570000000     0.136580000000    -0.0256871  
C743     C      0.557410000000     0.941690000000     0.131280000000    -0.0228654  
C744     C      0.593780000000     0.943060000000     0.111540000000    -0.0219182  
C745     C      0.580800000000     0.625850000000     0.111610000000    -0.0165314  
C746     C      0.548260000000     0.593430000000     0.132360000000    -0.0146959  
C747     C      0.587520000000     0.639610000000     0.139810000000    -0.0126429  
C748     C      0.555920000000     0.607080000000     0.160080000000    -0.0139431  
C749     C      0.512090000000     0.863610000000     0.131520000000    -0.0139505  
C750     C      0.536900000000     0.826650000000     0.098490000000    -0.0128656  
C751     C      0.500280000000     0.880260000000     0.106940000000    -0.0152306  
C752     C      0.523250000000     0.842670000000     0.075540000000    -0.0149404  
C753     C      0.375590000000     0.684970000000     0.913500000000    -0.0247949  
C754     C      0.396770000000     0.717810000000     0.876890000000    -0.0202572  
C755     C      0.363180000000     0.661300000000     0.892280000000    -0.0212343  
C756     C      0.384500000000     0.694010000000     0.855640000000    -0.0257612  
C757     C      0.404300000000     0.983900000000     0.852580000000    -0.013771   
C758     C      0.422070000000     0.035960000000     0.821600000000    -0.0145194  
C759     C      0.386510000000     0.014350000000     0.857190000000    -0.0144346  
C760     C      0.403400000000     0.063760000000     0.827000000000    -0.0133968  
C761     C      0.462260000000     0.738230000000     0.850970000000    -0.0138865  
C762     C      0.450420000000     0.784650000000     0.888590000000    -0.012983   
C763     C      0.477150000000     0.771230000000     0.840840000000    -0.0156567  
C764     C      0.465580000000     0.816780000000     0.877980000000    -0.0165256  
C765     C      0.463130000000     0.023710000000     0.956130000000    -0.0133149  
C766     C      0.523980000000     0.605020000000     0.956110000000    -0.0125231  
C767     C      0.469790000000     0.018190000000     0.985540000000    -0.0141264  
C768     C      0.529080000000     0.594270000000     0.985390000000    -0.0147301  
Cd1      Cd     0.409810000000     0.129380000000     0.920810000000     0.505974   
Cd2      Cd     0.566630000000     0.500840000000     0.052750000000     0.505301   
Cd3      Cd     0.427500000000     0.420120000000     0.812050000000     0.5044     
Cd4      Cd     0.569310000000     0.537260000000     0.719770000000     0.507411   
Cd5      Cd     0.456330000000     0.412750000000     0.460490000000     0.503961   
Cd6      Cd     0.590780000000     0.292580000000     0.571170000000     0.502164   
Cd7      Cd     0.425180000000     0.184320000000     0.327690000000     0.504175   
Cd8      Cd     0.556870000000     0.244400000000     0.189160000000     0.50526    
Cd9      Cd     0.077490000000     0.509640000000     0.534770000000     0.502673   
Cd10     Cd     0.894910000000     0.125390000000     0.407310000000     0.507744   
Cd11     Cd     0.949880000000     0.395110000000     0.968830000000     0.508416   
Cd12     Cd     0.086530000000     0.279320000000     0.084890000000     0.506938   
Cd13     Cd     0.043770000000     0.508060000000     0.233780000000     0.508301   
Cd14     Cd     0.885400000000     0.431320000000     0.320360000000     0.506876   
Cd15     Cd     0.955290000000     0.149400000000     0.818290000000     0.507068   
Cd16     Cd     0.073170000000     0.230000000000     0.658940000000     0.507189   
Cd17     Cd     0.822950000000     0.395020000000     0.816110000000     0.50538    
Cd18     Cd     0.698950000000     0.263610000000     0.688730000000     0.505253   
Cd19     Cd     0.763160000000     0.384370000000     0.433610000000     0.50519    
Cd20     Cd     0.656200000000     0.523240000000     0.558510000000     0.509031   
Cd21     Cd     0.826600000000     0.149220000000     0.955560000000     0.506939   
Cd22     Cd     0.686770000000     0.277440000000     0.057160000000     0.505425   
Cd23     Cd     0.680170000000     0.515170000000     0.197850000000     0.505114   
Cd24     Cd     0.774660000000     0.161870000000     0.271800000000     0.506616   
Cd25     Cd     0.286230000000     0.166280000000     0.788700000000     0.507811   
Cd26     Cd     0.184930000000     0.546540000000     0.705910000000     0.50726    
Cd27     Cd     0.289000000000     0.401860000000     0.945210000000     0.509379   
Cd28     Cd     0.156860000000     0.514310000000     0.074460000000     0.506676   
Cd29     Cd     0.287200000000     0.164380000000     0.443680000000     0.502578   
Cd30     Cd     0.162440000000     0.305470000000     0.560150000000     0.504217   
Cd31     Cd     0.209630000000     0.264850000000     0.189980000000     0.505778   
Cd32     Cd     0.333270000000     0.402310000000     0.311580000000     0.505155   
Cd33     Cd     0.446830000000     0.643280000000     0.931190000000     0.507756   
Cd34     Cd     0.534310000000     0.990870000000     0.046480000000     0.506841   
Cd35     Cd     0.453850000000     0.901950000000     0.791640000000     0.506962   
Cd36     Cd     0.602790000000     0.025290000000     0.702530000000     0.506755   
Cd37     Cd     0.430250000000     0.941500000000     0.479480000000     0.507985   
Cd38     Cd     0.567820000000     0.786400000000     0.574020000000     0.505401   
Cd39     Cd     0.424590000000     0.686230000000     0.342560000000     0.501921   
Cd40     Cd     0.548880000000     0.755720000000     0.189220000000     0.507546   
Cd41     Cd     0.026110000000     0.992170000000     0.523560000000     0.507912   
Cd42     Cd     0.940560000000     0.661370000000     0.447540000000     0.507448   
Cd43     Cd     0.935210000000     0.901360000000     0.954280000000     0.504346   
Cd44     Cd     0.052150000000     0.751160000000     0.082890000000     0.505633   
Cd45     Cd     0.107410000000     0.007910000000     0.207030000000     0.507503   
Cd46     Cd     0.982480000000     0.908400000000     0.310740000000     0.50705    
Cd47     Cd     0.942240000000     0.640240000000     0.821350000000     0.50854    
Cd48     Cd     0.057420000000     0.763010000000     0.673900000000     0.50631    
Cd49     Cd     0.818620000000     0.900330000000     0.807590000000     0.505511   
Cd50     Cd     0.692260000000     0.788480000000     0.676570000000     0.501801   
Cd51     Cd     0.836320000000     0.930920000000     0.391450000000     0.504621   
Cd52     Cd     0.707750000000     0.034350000000     0.530330000000     0.506617   
Cd53     Cd     0.812450000000     0.657730000000     0.950460000000     0.507071   
Cd54     Cd     0.671040000000     0.763940000000     0.058410000000     0.508422   
Cd55     Cd     0.633710000000     0.043970000000     0.162760000000     0.504805   
Cd56     Cd     0.816920000000     0.623000000000     0.322680000000     0.50507    
Cd57     Cd     0.325360000000     0.650220000000     0.804650000000     0.508837   
Cd58     Cd     0.151140000000     0.026670000000     0.682280000000     0.508286   
Cd59     Cd     0.330980000000     0.921380000000     0.930240000000     0.50841    
Cd60     Cd     0.207380000000     0.019450000000     0.057470000000     0.507184   
Cd61     Cd     0.303260000000     0.665310000000     0.438560000000     0.505356   
Cd62     Cd     0.161430000000     0.769460000000     0.543920000000     0.505847   
Cd63     Cd     0.178530000000     0.788100000000     0.191180000000     0.50207    
Cd64     Cd     0.311670000000     0.913890000000     0.312220000000     0.506004   
H1       H      0.284920000000     0.385860000000     0.208750000000     0.0493152  
H2       H      0.256840000000     0.410460000000     0.241520000000     0.0488505  
H3       H      0.235630000000     0.355400000000     0.259560000000     0.0560853  
H4       H      0.308450000000     0.362560000000     0.221710000000     0.0558967  
H5       H      0.281950000000     0.313660000000     0.202590000000     0.0556249  
H6       H      0.288440000000     0.304440000000     0.237280000000     0.0545945  
H7       H      0.261340000000     0.405900000000     0.277200000000     0.0544079  
H8       H      0.258540000000     0.332430000000     0.274370000000     0.0546447  
H9       H      0.297230000000     0.269020000000     0.357120000000     0.0536468  
H10      H      0.323470000000     0.303580000000     0.399280000000     0.0517759  
H11      H      0.346520000000     0.249750000000     0.414860000000     0.0488774  
H12      H      0.311100000000     0.263580000000     0.325760000000     0.0555129  
H13      H      0.308220000000     0.199110000000     0.351850000000     0.0564525  
H14      H      0.334910000000     0.214360000000     0.344840000000     0.0512327  
H15      H      0.349780000000     0.313990000000     0.387940000000     0.0456161  
H16      H      0.357230000000     0.243170000000     0.381520000000     0.045148   
H17      H      0.317600000000     0.557130000000     0.350690000000     0.0490431  
H18      H      0.335870000000     0.512370000000     0.395540000000     0.0403605  
H19      H      0.310470000000     0.518720000000     0.431670000000     0.0521307  
H20      H      0.298110000000     0.528730000000     0.332710000000     0.0554921  
H21      H      0.282210000000     0.579180000000     0.363910000000     0.0554917  
H22      H      0.274550000000     0.528350000000     0.371390000000     0.0495363  
H23      H      0.323720000000     0.464480000000     0.399960000000     0.0499859  
H24      H      0.290470000000     0.493330000000     0.412420000000     0.048881   
H25      H      0.210300000000     0.203310000000     0.499270000000     0.0540292  
H26      H      0.239300000000     0.265500000000     0.516420000000     0.0553229  
H27      H      0.256090000000     0.290790000000     0.475750000000     0.054156   
H28      H      0.186410000000     0.223120000000     0.485070000000     0.0529279  
H29      H      0.212310000000     0.199510000000     0.450230000000     0.0543635  
H30      H      0.205190000000     0.251600000000     0.447080000000     0.0479934  
H31      H      0.229420000000     0.315120000000     0.509970000000     0.0555883  
H32      H      0.231040000000     0.305290000000     0.461680000000     0.0480366  
H33      H      0.262700000000     0.135100000000     0.139780000000     0.0486629  
H34      H      0.257270000000     0.181220000000     0.101430000000     0.0485645  
H35      H      0.228520000000     0.159710000000     0.073010000000     0.053787   
H36      H      0.246510000000     0.138910000000     0.169480000000     0.0546833  
H37      H      0.238050000000     0.080110000000     0.138790000000     0.0545304  
H38      H      0.216130000000     0.112400000000     0.145870000000     0.0473392  
H39      H      0.237120000000     0.219310000000     0.102850000000     0.054823   
H40      H      0.209400000000     0.169670000000     0.098730000000     0.0516073  
H41      H      0.136020000000     0.354560000000     0.124770000000     0.0573826  
H42      H      0.139500000000     0.398680000000     0.165320000000     0.0358457  
H43      H      0.174680000000     0.395320000000     0.184250000000     0.0527868  
H44      H      0.145390000000     0.371510000000     0.092490000000     0.0635866  
H45      H      0.169010000000     0.320080000000     0.114300000000     0.0520634  
H46      H      0.182080000000     0.366830000000     0.107730000000     0.0530154  
H47      H      0.151510000000     0.447410000000     0.162240000000     0.0491367  
H48      H      0.186110000000     0.416970000000     0.154490000000     0.0539294  
H49      H      0.206570000000     0.464220000000     0.972130000000     0.0520464  
H50      H      0.232840000000     0.515640000000     0.995650000000     0.0507785  
H51      H      0.230560000000     0.509290000000     0.044540000000     0.0543309  
H52      H      0.214540000000     0.412440000000     0.970590000000     0.0565233  
H53      H      0.187640000000     0.426360000000     0.006460000000     0.0565758  
H54      H      0.211810000000     0.405750000000     0.019370000000     0.0510996  
H55      H      0.257290000000     0.495980000000     0.008490000000     0.0547524  
H56      H      0.238730000000     0.457590000000     0.043070000000     0.0509801  
H57      H      0.138970000000     0.193590000000     0.641910000000     0.0631298  
H58      H      0.180780000000     0.178080000000     0.633050000000     0.0523522  
H59      H      0.184490000000     0.110610000000     0.613970000000     0.0537023  
H60      H      0.123430000000     0.205100000000     0.612630000000     0.0629428  
H61      H      0.118660000000     0.134200000000     0.629180000000     0.0660756  
H62      H      0.128140000000     0.137300000000     0.595070000000     0.0389685  
H63      H      0.189380000000     0.181450000000     0.598580000000     0.0546272  
H64      H      0.167790000000     0.123690000000     0.585960000000     0.0455729  
H65      H      0.151150000000     0.428890000000     0.637180000000     0.0495947  
H66      H      0.190840000000     0.445500000000     0.614120000000     0.0485752  
H67      H      0.216770000000     0.441340000000     0.650330000000     0.0557222  
H68      H      0.146010000000     0.376620000000     0.643060000000     0.0547689  
H69      H      0.156090000000     0.413930000000     0.684950000000     0.0540187  
H70      H      0.173970000000     0.373630000000     0.676930000000     0.05069    
H71      H      0.206980000000     0.401920000000     0.608770000000     0.0555554  
H72      H      0.209860000000     0.389850000000     0.656930000000     0.0503552  
H73      H      0.268690000000     0.251260000000     0.891500000000     0.0519382  
H74      H      0.309160000000     0.263440000000     0.878680000000     0.0471703  
H75      H      0.313250000000     0.286440000000     0.831300000000     0.04452    
H76      H      0.252350000000     0.295130000000     0.894640000000     0.0563723  
H77      H      0.248490000000     0.258010000000     0.850110000000     0.0560292  
H78      H      0.255680000000     0.310030000000     0.846950000000     0.0509394  
H79      H      0.318290000000     0.314390000000     0.877180000000     0.0486129  
H80      H      0.295340000000     0.327210000000     0.837590000000     0.049332   
H81      H      0.298090000000     0.498250000000     0.850070000000     0.0470183  
H82      H      0.335180000000     0.509420000000     0.876270000000     0.0401115  
H83      H      0.337220000000     0.579300000000     0.889970000000     0.0437444  
H84      H      0.275020000000     0.491930000000     0.870750000000     0.0540351  
H85      H      0.277150000000     0.560400000000     0.850940000000     0.0548632  
H86      H      0.278030000000     0.561230000000     0.887190000000     0.0498299  
H87      H      0.333900000000     0.511620000000     0.912450000000     0.0492249  
H88      H      0.314080000000     0.574230000000     0.910710000000     0.0465361  
H89      H      0.263070000000     0.560380000000     0.754570000000     0.0561032  
H90      H      0.194070000000     0.098430000000     0.775730000000     0.0506923  
H91      H      0.212250000000     0.158820000000     0.760570000000     0.0563495  
H92      H      0.261160000000     0.540240000000     0.721060000000     0.0563974  
H93      H      0.296870000000     0.568910000000     0.731330000000     0.0554998  
H94      H      0.284000000000     0.592430000000     0.703120000000     0.0490847  
H95      H      0.179650000000     0.120480000000     0.748230000000     0.0557747  
H96      H      0.212450000000     0.141270000000     0.726300000000     0.0529021  
H97      H      0.738700000000     0.552660000000     0.293590000000     0.0525068  
H98      H      0.766300000000     0.524560000000     0.255740000000     0.0527745  
H99      H      0.754960000000     0.547330000000     0.211830000000     0.055046   
H100     H      0.703690000000     0.104250000000     0.268830000000     0.0553409  
H101     H      0.711630000000     0.592710000000     0.271340000000     0.0558751  
H102     H      0.685770000000     0.139820000000     0.232360000000     0.0524583  
H103     H      0.740560000000     0.093670000000     0.196070000000     0.0555944  
H104     H      0.708920000000     0.133270000000     0.186740000000     0.0526096  
H105     H      0.601460000000     0.205540000000     0.123730000000     0.0568263  
H106     H      0.600120000000     0.166120000000     0.082650000000     0.0455266  
H107     H      0.632110000000     0.171280000000     0.056860000000     0.0550247  
H108     H      0.614180000000     0.186490000000     0.153540000000     0.0697312  
H109     H      0.634430000000     0.240690000000     0.127510000000     0.0550915  
H110     H      0.648780000000     0.195620000000     0.134350000000     0.0560212  
H111     H      0.611350000000     0.116490000000     0.081230000000     0.054045   
H112     H      0.646890000000     0.142920000000     0.081040000000     0.0580336  
H113     H      0.736400000000     0.407560000000     0.112290000000     0.0493847  
H114     H      0.732140000000     0.357350000000     0.148980000000     0.0494322  
H115     H      0.703830000000     0.376520000000     0.178550000000     0.0544602  
H116     H      0.720200000000     0.404710000000     0.082540000000     0.0549236  
H117     H      0.710330000000     0.460480000000     0.114520000000     0.0544069  
H118     H      0.689170000000     0.426280000000     0.107540000000     0.0484993  
H119     H      0.712230000000     0.319000000000     0.146510000000     0.0548627  
H120     H      0.684250000000     0.367220000000     0.153330000000     0.051028   
H121     H      0.750350000000     0.221110000000     0.976770000000     0.0546942  
H122     H      0.773890000000     0.227060000000     0.025840000000     0.0547048  
H123     H      0.752230000000     0.198630000000     0.061530000000     0.0551539  
H124     H      0.750040000000     0.171300000000     0.962880000000     0.0556891  
H125     H      0.716760000000     0.189670000000     0.987680000000     0.056238   
H126     H      0.729790000000     0.145650000000     0.000520000000     0.0494975  
H127     H      0.785290000000     0.180240000000     0.036350000000     0.0565285  
H128     H      0.750910000000     0.150970000000     0.044520000000     0.0494029  
H129     H      0.730770000000     0.230850000000     0.366710000000     0.0508222  
H130     H      0.726410000000     0.286210000000     0.331390000000     0.050145   
H131     H      0.750530000000     0.341040000000     0.340510000000     0.0555092  
H132     H      0.751990000000     0.195320000000     0.363130000000     0.0543103  
H133     H      0.758530000000     0.246990000000     0.398900000000     0.0527796  
H134     H      0.778160000000     0.247370000000     0.372740000000     0.0420845  
H135     H      0.745020000000     0.289320000000     0.304080000000     0.0553881  
H136     H      0.773130000000     0.309680000000     0.334660000000     0.0494097  
H137     H      0.805180000000     0.476130000000     0.357300000000     0.0601206  
H138     H      0.795710000000     0.535410000000     0.405980000000     0.0570752  
H139     H      0.810180000000     0.500400000000     0.444000000000     0.0526577  
H140     H      0.832450000000     0.482330000000     0.349000000000     0.0694452  
H141     H      0.823980000000     0.421330000000     0.378020000000     0.0616148  
H142     H      0.843880000000     0.454370000000     0.391200000000     0.0548348  
H143     H      0.820130000000     0.559880000000     0.413690000000     0.0501864  
H144     H      0.836090000000     0.499010000000     0.429420000000     0.0392286  
H145     H      0.675580000000     0.456770000000     0.432890000000     0.0478261  
H146     H      0.698040000000     0.516950000000     0.434480000000     0.0476836  
H147     H      0.703460000000     0.540880000000     0.479850000000     0.054886   
H148     H      0.686400000000     0.407920000000     0.440020000000     0.0551035  
H149     H      0.663860000000     0.438690000000     0.477280000000     0.056377   
H150     H      0.689720000000     0.423110000000     0.487420000000     0.0578596  
H151     H      0.725770000000     0.512760000000     0.441800000000     0.0541378  
H152     H      0.718720000000     0.497540000000     0.488800000000     0.0572763  
H153     H      0.693360000000     0.372590000000     0.592370000000     0.0503507  
H154     H      0.652740000000     0.362240000000     0.602840000000     0.0566084  
H155     H      0.648110000000     0.359510000000     0.651460000000     0.0477036  
H156     H      0.703760000000     0.422760000000     0.594490000000     0.0555703  
H157     H      0.713810000000     0.381030000000     0.633990000000     0.0555345  
H158     H      0.698070000000     0.423720000000     0.643430000000     0.0503597  
H159     H      0.637880000000     0.405540000000     0.613100000000     0.0541293  
H160     H      0.657440000000     0.410090000000     0.655300000000     0.0426839  
H161     H      0.740610000000     0.122130000000     0.639600000000     0.0505248  
H162     H      0.748460000000     0.177770000000     0.605690000000     0.0497288  
H163     H      0.727280000000     0.168270000000     0.565950000000     0.0562594  
H164     H      0.718170000000     0.127050000000     0.661590000000     0.054991   
H165     H      0.712900000000     0.077630000000     0.624140000000     0.0501409  
H166     H      0.693830000000     0.117420000000     0.624050000000     0.0400171  
H167     H      0.730780000000     0.219860000000     0.603310000000     0.0543675  
H168     H      0.703320000000     0.178710000000     0.583700000000     0.051031   
H169     H      0.792910000000     0.552020000000     0.855840000000     0.0512082  
H170     H      0.834410000000     0.559120000000     0.858190000000     0.0494109  
H171     H      0.847870000000     0.548540000000     0.904680000000     0.0485861  
H172     H      0.781890000000     0.502550000000     0.859260000000     0.0562537  
H173     H      0.779840000000     0.544810000000     0.901700000000     0.0556378  
H174     H      0.793710000000     0.498100000000     0.905910000000     0.0517251  
H175     H      0.849790000000     0.513840000000     0.860410000000     0.0437523  
H176     H      0.835280000000     0.500360000000     0.905860000000     0.0456473  
H177     H      0.812780000000     0.293310000000     0.903820000000     0.0543044  
H178     H      0.836000000000     0.244020000000     0.865150000000     0.0524554  
H179     H      0.866240000000     0.284190000000     0.851560000000     0.0525752  
H180     H      0.824760000000     0.293160000000     0.936630000000     0.0562714  
H181     H      0.832870000000     0.355340000000     0.910050000000     0.0549788  
H182     H      0.855890000000     0.327280000000     0.919930000000     0.0503558  
H183     H      0.859210000000     0.222080000000     0.879780000000     0.046326   
H184     H      0.875660000000     0.286950000000     0.885740000000     0.039386   
H185     H      0.737180000000     0.327740000000     0.800520000000     0.0506034  
H186     H      0.760880000000     0.267040000000     0.791710000000     0.0497602  
H187     H      0.763330000000     0.253160000000     0.743780000000     0.0557011  
H188     H      0.747760000000     0.377450000000     0.796080000000     0.0563124  
H189     H      0.723730000000     0.355470000000     0.758640000000     0.0563176  
H190     H      0.749830000000     0.368080000000     0.747380000000     0.0543499  
H191     H      0.787690000000     0.275100000000     0.781060000000     0.0547407  
H192     H      0.775980000000     0.300520000000     0.737450000000     0.0541197  
H193     H      0.107490000000     0.251430000000     0.495190000000     0.0562761  
H194     H      0.124480000000     0.220920000000     0.542240000000     0.0681078  
H195     H      0.100210000000     0.238610000000     0.578410000000     0.0690994  
H196     H      0.086860000000     0.220220000000     0.481280000000     0.0452001  
H197     H      0.074450000000     0.284290000000     0.507030000000     0.0457757  
H198     H      0.062600000000     0.237450000000     0.517530000000     0.0448654  
H199     H      0.112500000000     0.174390000000     0.552780000000     0.0393341  
H200     H      0.079560000000     0.207640000000     0.564590000000     0.0508685  
H201     H      0.926340000000     0.086820000000     0.882800000000     0.0569269  
H202     H      0.903170000000     0.155320000000     0.891690000000     0.0579662  
H203     H      0.876070000000     0.158070000000     0.857110000000     0.0506599  
H204     H      0.913820000000     0.041870000000     0.895520000000     0.0454521  
H205     H      0.911320000000     0.053660000000     0.843620000000     0.0501765  
H206     H      0.886760000000     0.044060000000     0.860860000000     0.0394026  
H207     H      0.878600000000     0.146280000000     0.909030000000     0.0670948  
H208     H      0.863260000000     0.113500000000     0.869780000000     0.0512438  
H209     H      0.013530000000     0.139290000000     0.720320000000     0.0521817  
H210     H      0.992440000000     0.207250000000     0.708940000000     0.0497702  
H211     H      0.985110000000     0.241410000000     0.751120000000     0.054019   
H212     H      0.041440000000     0.143740000000     0.726170000000     0.0570127  
H213     H      0.021150000000     0.134680000000     0.768590000000     0.0562927  
H214     H      0.035260000000     0.181560000000     0.767730000000     0.0525672  
H215     H      0.007390000000     0.253120000000     0.709630000000     0.0558062  
H216     H      0.012750000000     0.247920000000     0.757910000000     0.051489   
H217     H      0.836170000000     0.258120000000     0.399820000000     0.0396067  
H218     H      0.859420000000     0.301230000000     0.436830000000     0.0437025  
H219     H      0.854590000000     0.372080000000     0.426250000000     0.0463863  
H220     H      0.808390000000     0.256000000000     0.407690000000     0.0446141  
H221     H      0.819310000000     0.306610000000     0.370000000000     0.0446653  
H222     H      0.803520000000     0.326620000000     0.397090000000     0.0672852  
H223     H      0.843670000000     0.321500000000     0.463930000000     0.0506304  
H224     H      0.826850000000     0.369950000000     0.434370000000     0.0635833  
H225     H      0.128630000000     0.552820000000     0.162640000000     0.0551977  
H226     H      0.110160000000     0.481780000000     0.145820000000     0.0501591  
H227     H      0.072220000000     0.487140000000     0.154680000000     0.0548299  
H228     H      0.124920000000     0.593470000000     0.138950000000     0.0493536  
H229     H      0.100380000000     0.593800000000     0.181250000000     0.0453867  
H230     H      0.087630000000     0.598230000000     0.148820000000     0.0437413  
H231     H      0.097530000000     0.485650000000     0.113320000000     0.0579862  
H232     H      0.069500000000     0.528110000000     0.131240000000     0.0495982  
H233     H      0.975750000000     0.413050000000     0.276140000000     0.0504854  
H234     H      0.957330000000     0.455360000000     0.236770000000     0.0516369  
H235     H      0.931770000000     0.501100000000     0.256640000000     0.0567256  
H236     H      0.996430000000     0.437430000000     0.294800000000     0.0544781  
H237     H      0.962400000000     0.434380000000     0.320030000000     0.0535905  
H238     H      0.971380000000     0.484920000000     0.314390000000     0.0505911  
H239     H      0.966330000000     0.506060000000     0.231910000000     0.0546247  
H240     H      0.952050000000     0.526700000000     0.275250000000     0.0506799  
H241     H      0.122270000000     0.326810000000     0.171140000000     0.0449582  
H242     H      0.086260000000     0.285130000000     0.185660000000     0.0486116  
H243     H      0.086350000000     0.223820000000     0.159960000000     0.0536231  
H244     H      0.145620000000     0.309580000000     0.188520000000     0.0541472  
H245     H      0.141480000000     0.285220000000     0.138960000000     0.0579476  
H246     H      0.145710000000     0.246380000000     0.163570000000     0.0653242  
H247     H      0.091160000000     0.245960000000     0.209990000000     0.0451939  
H248     H      0.109620000000     0.205060000000     0.176930000000     0.0471682  
H249     H      0.091970000000     0.101660000000     0.095860000000     0.0496401  
H250     H      0.057410000000     0.118030000000     0.119620000000     0.0489765  
H251     H      0.062360000000     0.112220000000     0.167450000000     0.0536662  
H252     H      0.111370000000     0.140550000000     0.091610000000     0.055744   
H253     H      0.120940000000     0.090420000000     0.127150000000     0.0543253  
H254     H      0.118850000000     0.140730000000     0.140050000000     0.0474769  
H255     H      0.053700000000     0.167230000000     0.133800000000     0.0528976  
H256     H      0.079610000000     0.154630000000     0.168700000000     0.0433717  
H257     H      0.072880000000     0.344120000000     0.207590000000     0.0444448  
H258     H      0.104020000000     0.386730000000     0.192260000000     0.0429651  
H259     H      0.104730000000     0.392990000000     0.143490000000     0.0463382  
H260     H      0.047070000000     0.366240000000     0.209230000000     0.0535031  
H261     H      0.052450000000     0.321000000000     0.169210000000     0.05024    
H262     H      0.045090000000     0.371360000000     0.160380000000     0.0525345  
H263     H      0.099730000000     0.438500000000     0.183620000000     0.047802   
H264     H      0.080150000000     0.419400000000     0.143130000000     0.0450953  
H265     H      0.898950000000     0.357560000000     0.859990000000     0.0502007  
H266     H      0.872850000000     0.419370000000     0.844270000000     0.0709334  
H267     H      0.855010000000     0.443530000000     0.884480000000     0.0537907  
H268     H      0.923430000000     0.374790000000     0.874670000000     0.0467807  
H269     H      0.894620000000     0.349790000000     0.908370000000     0.049563   
H270     H      0.905760000000     0.398570000000     0.915030000000     0.0682705  
H271     H      0.883740000000     0.468630000000     0.850680000000     0.048771   
H272     H      0.879310000000     0.461340000000     0.899140000000     0.0418143  
H273     H      0.978950000000     0.265120000000     0.897910000000     0.0515686  
H274     H      0.943930000000     0.230290000000     0.919070000000     0.051126   
H275     H      0.916690000000     0.281690000000     0.921780000000     0.0508865  
H276     H      0.979660000000     0.270470000000     0.861860000000     0.0549669  
H277     H      0.971600000000     0.334940000000     0.884710000000     0.0529554  
H278     H      0.950380000000     0.318590000000     0.863270000000     0.045999   
H279     H      0.923330000000     0.217860000000     0.895590000000     0.0479438  
H280     H      0.916750000000     0.288070000000     0.885780000000     0.0393439  
H281     H      0.978500000000     0.497070000000     0.875980000000     0.0507245  
H282     H      0.940050000000     0.474440000000     0.865430000000     0.053033   
H283     H      0.916400000000     0.482270000000     0.904600000000     0.0479225  
H284     H      0.983760000000     0.549930000000     0.879150000000     0.0557769  
H285     H      0.980840000000     0.513230000000     0.923770000000     0.0557686  
H286     H      0.962510000000     0.554040000000     0.920000000000     0.0502664  
H287     H      0.920450000000     0.512400000000     0.859190000000     0.0492773  
H288     H      0.922820000000     0.534740000000     0.906660000000     0.0404828  
H289     H      0.001220000000     0.307540000000     0.043370000000     0.0526067  
H290     H      0.018460000000     0.382840000000     0.043980000000     0.0524407  
H291     H      0.054110000000     0.378890000000     0.025420000000     0.0564566  
H292     H      0.991660000000     0.290190000000     0.011310000000     0.0538233  
H293     H      0.026580000000     0.260420000000     0.023730000000     0.0555126  
H294     H      0.027400000000     0.288860000000     0.992890000000     0.0509119  
H295     H      0.019160000000     0.408610000000     0.012160000000     0.0571587  
H296     H      0.044170000000     0.360140000000     0.993900000000     0.0517166  
H297     H      0.843000000000     0.158720000000     0.295100000000     0.0610235  
H298     H      0.819660000000     0.193180000000     0.336400000000     0.0612177  
H299     H      0.841230000000     0.188740000000     0.376620000000     0.0491948  
H300     H      0.862370000000     0.192490000000     0.280990000000     0.0506902  
H301     H      0.876770000000     0.138250000000     0.314060000000     0.0481741  
H302     H      0.884100000000     0.189350000000     0.321370000000     0.0512478  
H303     H      0.827460000000     0.244080000000     0.343700000000     0.0422039  
H304     H      0.860700000000     0.222740000000     0.363190000000     0.0469704  
H305     H      0.883480000000     0.261590000000     0.332470000000     0.047119   
H306     H      0.869000000000     0.290300000000     0.381490000000     0.0447087  
H307     H      0.894100000000     0.271640000000     0.416730000000     0.0499487  
H308     H      0.904900000000     0.289270000000     0.317890000000     0.0539284  
H309     H      0.916470000000     0.225540000000     0.340710000000     0.0500639  
H310     H      0.928590000000     0.270030000000     0.354150000000     0.048814   
H311     H      0.882100000000     0.334530000000     0.393760000000     0.0519786  
H312     H      0.915030000000     0.298010000000     0.399790000000     0.0486441  
H313     H      0.866050000000     0.536850000000     0.416180000000     0.0417362  
H314     H      0.863400000000     0.584910000000     0.378260000000     0.0521973  
H315     H      0.896530000000     0.620070000000     0.371260000000     0.0498393  
H316     H      0.877500000000     0.487840000000     0.411130000000     0.0470196  
H317     H      0.900790000000     0.536200000000     0.436490000000     0.0529995  
H318     H      0.912640000000     0.517400000000     0.406120000000     0.0537343  
H319     H      0.873510000000     0.571550000000     0.345510000000     0.0672254  
H320     H      0.909730000000     0.574660000000     0.361740000000     0.053368   
H321     H      0.137970000000     0.499180000000     0.646750000000     0.0553067  
H322     H      0.157490000000     0.476640000000     0.599290000000     0.0470053  
H323     H      0.132790000000     0.433600000000     0.575280000000     0.0559036  
H324     H      0.119520000000     0.539960000000     0.642470000000     0.0465019  
H325     H      0.103110000000     0.468420000000     0.646950000000     0.0442137  
H326     H      0.094650000000     0.497530000000     0.618210000000     0.0626044  
H327     H      0.148930000000     0.505500000000     0.570530000000     0.0548078  
H328     H      0.114390000000     0.474450000000     0.570640000000     0.0689049  
H329     H      0.027410000000     0.122970000000     0.596260000000     0.0538181  
H330     H      0.069310000000     0.091540000000     0.596170000000     0.0506203  
H331     H      0.081160000000     0.087120000000     0.549460000000     0.0502868  
H332     H      0.026310000000     0.175940000000     0.589610000000     0.0535575  
H333     H      0.017680000000     0.133120000000     0.549180000000     0.052332   
H334     H      0.039540000000     0.166830000000     0.544190000000     0.0432631  
H335     H      0.089330000000     0.128810000000     0.590320000000     0.040397   
H336     H      0.076610000000     0.139830000000     0.544470000000     0.0448706  
H337     H      0.068010000000     0.343290000000     0.566300000000     0.0517847  
H338     H      0.044320000000     0.383740000000     0.602830000000     0.0508676  
H339     H      0.060720000000     0.374830000000     0.646610000000     0.0548021  
H340     H      0.091140000000     0.368650000000     0.554010000000     0.0541283  
H341     H      0.099950000000     0.315850000000     0.587610000000     0.0675793  
H342     H      0.107660000000     0.365080000000     0.598690000000     0.0604267  
H343     H      0.054370000000     0.431540000000     0.613640000000     0.0524735  
H344     H      0.084240000000     0.400280000000     0.635870000000     0.048572   
H345     H      0.949580000000     0.088520000000     0.500290000000     0.0510509  
H346     H      0.976890000000     0.108780000000     0.462290000000     0.0497628  
H347     H      0.994000000000     0.048840000000     0.443230000000     0.0544547  
H348     H      0.924840000000     0.067230000000     0.489770000000     0.0569599  
H349     H      0.000770000000     0.515890000000     0.523060000000     0.0538329  
H350     H      0.989950000000     0.510550000000     0.489720000000     0.0464165  
H351     H      0.969030000000     0.101900000000     0.427750000000     0.0535087  
H352     H      0.012140000000     0.531700000000     0.449140000000     0.0496949  
H353     H      0.601890000000     0.344710000000     0.147690000000     0.0465946  
H354     H      0.614400000000     0.375420000000     0.098010000000     0.0514276  
H355     H      0.649300000000     0.404060000000     0.104300000000     0.0493899  
H356     H      0.613390000000     0.296340000000     0.154920000000     0.051695   
H357     H      0.630500000000     0.357910000000     0.179060000000     0.047698   
H358     H      0.648330000000     0.325200000000     0.161000000000     0.0499216  
H359     H      0.632170000000     0.342510000000     0.080200000000     0.0632526  
H360     H      0.660710000000     0.355600000000     0.111750000000     0.0569391  
H361     H      0.370690000000     0.116230000000     0.357360000000     0.0594281  
H362     H      0.337530000000     0.067720000000     0.372910000000     0.0466947  
H363     H      0.336410000000     0.069830000000     0.421880000000     0.0477352  
H364     H      0.364240000000     0.169010000000     0.357070000000     0.0565646  
H365     H      0.386220000000     0.144710000000     0.398190000000     0.054109   
H366     H      0.362370000000     0.171690000000     0.406150000000     0.0530115  
H367     H      0.314010000000     0.095710000000     0.381270000000     0.0526048  
H368     H      0.329610000000     0.122420000000     0.422050000000     0.0670398  
H369     H      0.515540000000     0.218970000000     0.307520000000     0.0494512  
H370     H      0.497470000000     0.283500000000     0.291790000000     0.0495901  
H371     H      0.495810000000     0.287060000000     0.242940000000     0.056163   
H372     H      0.500860000000     0.172730000000     0.307410000000     0.0554406  
H373     H      0.526820000000     0.179420000000     0.269180000000     0.0557979  
H374     H      0.500110000000     0.171500000000     0.258390000000     0.0538865  
H375     H      0.470270000000     0.281620000000     0.281460000000     0.055974   
H376     H      0.479390000000     0.243140000000     0.241230000000     0.0547637  
H377     H      0.674990000000     0.265610000000     0.625870000000     0.0646507  
H378     H      0.674040000000     0.183160000000     0.625950000000     0.0528212  
H379     H      0.638150000000     0.162960000000     0.636730000000     0.0448376  
H380     H      0.664800000000     0.287760000000     0.595330000000     0.0500169  
H381     H      0.639440000000     0.288700000000     0.636740000000     0.0632003  
H382     H      0.628810000000     0.267400000000     0.606170000000     0.0645778  
H383     H      0.663400000000     0.161920000000     0.595320000000     0.0426655  
H384     H      0.627950000000     0.185060000000     0.606060000000     0.0518866  
H385     H      0.380280000000     0.391770000000     0.407640000000     0.0501046  
H386     H      0.405170000000     0.442890000000     0.437600000000     0.0667288  
H387     H      0.420630000000     0.489950000000     0.406150000000     0.0511441  
H388     H      0.354610000000     0.412220000000     0.399880000000     0.0576456  
H389     H      0.381940000000     0.413810000000     0.360720000000     0.0542141  
H390     H      0.369660000000     0.461310000000     0.368700000000     0.0567529  
H391     H      0.392680000000     0.490460000000     0.444740000000     0.0510462  
H392     H      0.395400000000     0.512030000000     0.398080000000     0.0432126  
H393     H      0.382620000000     0.290880000000     0.410540000000     0.0377154  
H394     H      0.386560000000     0.336860000000     0.372280000000     0.0468189  
H395     H      0.418350000000     0.376270000000     0.376490000000     0.055067   
H396     H      0.395800000000     0.242970000000     0.410740000000     0.0458108  
H397     H      0.411320000000     0.295650000000     0.441930000000     0.054873   
H398     H      0.429750000000     0.274890000000     0.418310000000     0.0562433  
H399     H      0.403240000000     0.324110000000     0.344230000000     0.060724   
H400     H      0.434890000000     0.333480000000     0.370890000000     0.0570281  
H401     H      0.440520000000     0.527950000000     0.372810000000     0.0493645  
H402     H      0.424300000000     0.565120000000     0.420190000000     0.0458219  
H403     H      0.450740000000     0.558800000000     0.455760000000     0.0541691  
H404     H      0.460480000000     0.556940000000     0.356190000000     0.0552345  
H405     H      0.474840000000     0.500360000000     0.384630000000     0.0554285  
H406     H      0.484750000000     0.549260000000     0.393420000000     0.05001    
H407     H      0.435510000000     0.613520000000     0.427070000000     0.0521086  
H408     H      0.470060000000     0.584430000000     0.435530000000     0.0503786  
H409     H      0.537770000000     0.389590000000     0.515270000000     0.055765   
H410     H      0.512940000000     0.317900000000     0.526850000000     0.0558221  
H411     H      0.498280000000     0.294710000000     0.484140000000     0.0551724  
H412     H      0.562360000000     0.377880000000     0.499210000000     0.0567813  
H413     H      0.533860000000     0.401990000000     0.467390000000     0.0550408  
H414     H      0.544940000000     0.353780000000     0.459140000000     0.0486367  
H415     H      0.526280000000     0.272670000000     0.516870000000     0.0550961  
H416     H      0.524180000000     0.290590000000     0.469580000000     0.0486401  
H417     H      0.600040000000     0.510530000000     0.649880000000     0.0639894  
H418     H      0.613580000000     0.589310000000     0.656830000000     0.0544388  
H419     H      0.643600000000     0.587190000000     0.687070000000     0.0478539  
H420     H      0.615790000000     0.483140000000     0.625820000000     0.0601764  
H421     H      0.623600000000     0.468420000000     0.676570000000     0.0515033  
H422     H      0.646060000000     0.481610000000     0.655970000000     0.0492845  
H423     H      0.636040000000     0.601700000000     0.636210000000     0.0477506  
H424     H      0.659260000000     0.559200000000     0.663170000000     0.0496424  
H425     H      0.558500000000     0.136640000000     0.609410000000     0.0493459  
H426     H      0.555990000000     0.180710000000     0.651590000000     0.0490691  
H427     H      0.583180000000     0.164890000000     0.684200000000     0.0561796  
H428     H      0.578440000000     0.147650000000     0.584690000000     0.0547233  
H429     H      0.586310000000     0.088380000000     0.615170000000     0.054544   
H430     H      0.606320000000     0.126310000000     0.614620000000     0.0451666  
H431     H      0.573350000000     0.223160000000     0.654860000000     0.0546357  
H432     H      0.603730000000     0.179430000000     0.661400000000     0.0539424  
H433     H      0.547640000000     0.395860000000     0.655380000000     0.0517845  
H434     H      0.579890000000     0.371200000000     0.683760000000     0.0514627  
H435     H      0.609690000000     0.363520000000     0.653950000000     0.0471559  
H436     H      0.545250000000     0.448790000000     0.648670000000     0.0552888  
H437     H      0.557350000000     0.410830000000     0.608490000000     0.0560504  
H438     H      0.576630000000     0.446810000000     0.619570000000     0.0498408  
H439     H      0.599470000000     0.407510000000     0.693420000000     0.0529385  
H440     H      0.610580000000     0.416360000000     0.646980000000     0.0366656  
H441     H      0.344790000000     0.327220000000     0.841650000000     0.0371486  
H442     H      0.317520000000     0.385190000000     0.862640000000     0.0559783  
H443     H      0.339740000000     0.434120000000     0.885170000000     0.0547468  
H444     H      0.356650000000     0.342400000000     0.810210000000     0.0495631  
H445     H      0.380400000000     0.347920000000     0.852900000000     0.0520708  
H446     H      0.378320000000     0.392680000000     0.832420000000     0.0688774  
H447     H      0.316130000000     0.429680000000     0.842050000000     0.0470494  
H448     H      0.351790000000     0.449570000000     0.853820000000     0.0501826  
H449     H      0.510540000000     0.441090000000     0.769230000000     0.0552152  
H450     H      0.487510000000     0.513140000000     0.754370000000     0.0557985  
H451     H      0.471080000000     0.538680000000     0.795420000000     0.0551345  
H452     H      0.534660000000     0.451940000000     0.786720000000     0.0560072  
H453     H      0.504760000000     0.431210000000     0.817250000000     0.0553136  
H454     H      0.515910000000     0.479590000000     0.824920000000     0.0488317  
H455     H      0.500860000000     0.558270000000     0.764510000000     0.0560788  
H456     H      0.496300000000     0.542500000000     0.811890000000     0.0495308  
H457     H      0.632390000000     0.473930000000     0.152540000000     0.0654157  
H458     H      0.598690000000     0.421450000000     0.153270000000     0.0478471  
H459     H      0.567170000000     0.461540000000     0.160750000000     0.0462206  
H460     H      0.635560000000     0.499280000000     0.120620000000     0.0571549  
H461     H      0.618180000000     0.541250000000     0.159210000000     0.0552504  
H462     H      0.603990000000     0.539580000000     0.127720000000     0.0528316  
H463     H      0.584370000000     0.420140000000     0.121800000000     0.0449937  
H464     H      0.570050000000     0.486840000000     0.128830000000     0.0637344  
H465     H      0.530850000000     0.141410000000     0.097720000000     0.0512322  
H466     H      0.571720000000     0.115170000000     0.107010000000     0.0507936  
H467     H      0.576680000000     0.111070000000     0.155610000000     0.0651072  
H468     H      0.510740000000     0.103660000000     0.101010000000     0.0553395  
H469     H      0.512660000000     0.149080000000     0.140920000000     0.0546509  
H470     H      0.517470000000     0.097280000000     0.149200000000     0.0493539  
H471     H      0.574150000000     0.063210000000     0.116310000000     0.067662   
H472     H      0.555880000000     0.074620000000     0.158630000000     0.055556   
H473     H      0.578990000000     0.350040000000     0.107610000000     0.0445574  
H474     H      0.551360000000     0.395190000000     0.143480000000     0.0417682  
H475     H      0.523370000000     0.421930000000     0.115230000000     0.0533839  
H476     H      0.568420000000     0.301800000000     0.098980000000     0.0527811  
H477     H      0.563990000000     0.354050000000     0.062680000000     0.0543242  
H478     H      0.539590000000     0.332200000000     0.074070000000     0.0493436  
H479     H      0.527530000000     0.368540000000     0.150950000000     0.0542425  
H480     H      0.515600000000     0.372340000000     0.104820000000     0.0499544  
H481     H      0.325880000000     0.213660000000     0.848670000000     0.0577542  
H482     H      0.338660000000     0.137850000000     0.863120000000     0.0529314  
H483     H      0.362740000000     0.113670000000     0.828210000000     0.0457733  
H484     H      0.345360000000     0.251980000000     0.855720000000     0.0367864  
H485     H      0.342410000000     0.228450000000     0.805610000000     0.0598935  
H486     H      0.368470000000     0.228080000000     0.820120000000     0.0418172  
H487     H      0.364440000000     0.136520000000     0.878380000000     0.0656546  
H488     H      0.381680000000     0.152650000000     0.835670000000     0.0560643  
H489     H      0.373070000000     0.500180000000     0.898100000000     0.0389833  
H490     H      0.369010000000     0.545920000000     0.860960000000     0.0464756  
H491     H      0.395490000000     0.597360000000     0.860570000000     0.0508553  
H492     H      0.391560000000     0.459250000000     0.896780000000     0.054547   
H493     H      0.401620000000     0.520830000000     0.925990000000     0.0538145  
H494     H      0.421080000000     0.503020000000     0.902840000000     0.0597925  
H495     H      0.383610000000     0.539240000000     0.830150000000     0.0623144  
H496     H      0.415730000000     0.563270000000     0.850420000000     0.0588387  
H497     H      0.427030000000     0.298860000000     0.904760000000     0.0516995  
H498     H      0.391480000000     0.286060000000     0.876510000000     0.0465941  
H499     H      0.398330000000     0.287670000000     0.827670000000     0.0451214  
H500     H      0.445980000000     0.258710000000     0.905280000000     0.0560065  
H501     H      0.454710000000     0.315200000000     0.872800000000     0.0556035  
H502     H      0.453070000000     0.266380000000     0.857520000000     0.0509294  
H503     H      0.388270000000     0.237140000000     0.861850000000     0.0528002  
H504     H      0.417790000000     0.248650000000     0.831000000000     0.0491532  
H505     H      0.496500000000     0.071110000000     0.939320000000     0.0502659  
H506     H      0.519440000000     0.528790000000     0.936170000000     0.0487484  
H507     H      0.514440000000     0.493890000000     0.978500000000     0.055456   
H508     H      0.484360000000     0.118560000000     0.947170000000     0.0556824  
H509     H      0.508450000000     0.092550000000     0.983500000000     0.0556199  
H510     H      0.481880000000     0.100990000000     0.994710000000     0.0538717  
H511     H      0.447090000000     0.010770000000     0.953340000000     0.0552233  
H512     H      0.457220000000     0.030870000000     0.998690000000     0.0543599  
H513     H      0.255300000000     0.888110000000     0.221670000000     0.0517342  
H514     H      0.229040000000     0.899890000000     0.262990000000     0.0525114  
H515     H      0.211060000000     0.837170000000     0.274260000000     0.0569536  
H516     H      0.279920000000     0.863450000000     0.228820000000     0.055779   
H517     H      0.253180000000     0.818180000000     0.207150000000     0.0549812  
H518     H      0.261780000000     0.800840000000     0.239680000000     0.0513423  
H519     H      0.237560000000     0.882910000000     0.295620000000     0.0551988  
H520     H      0.235800000000     0.812820000000     0.281170000000     0.0514965  
H521     H      0.305010000000     0.763240000000     0.350530000000     0.054813   
H522     H      0.322230000000     0.814940000000     0.396580000000     0.0540467  
H523     H      0.351340000000     0.776160000000     0.414460000000     0.0481655  
H524     H      0.321970000000     0.768070000000     0.321770000000     0.0552649  
H525     H      0.327980000000     0.704720000000     0.348950000000     0.0560143  
H526     H      0.350960000000     0.735850000000     0.344730000000     0.0574999  
H527     H      0.346090000000     0.838920000000     0.385790000000     0.0484517  
H528     H      0.364580000000     0.775980000000     0.382330000000     0.0467636  
H529     H      0.287660000000     0.059300000000     0.355240000000     0.0497448  
H530     H      0.312390000000     0.018360000000     0.398040000000     0.043593   
H531     H      0.290080000000     0.017390000000     0.437810000000     0.0516009  
H532     H      0.267620000000     0.026930000000     0.341970000000     0.0556069  
H533     H      0.254260000000     0.077290000000     0.376110000000     0.0554576  
H534     H      0.248760000000     0.025650000000     0.384230000000     0.0486025  
H535     H      0.303330000000     0.967960000000     0.403230000000     0.0518178  
H536     H      0.269650000000     0.990780000000     0.420020000000     0.0482944  
H537     H      0.221990000000     0.680680000000     0.491480000000     0.0553998  
H538     H      0.243660000000     0.751980000000     0.508700000000     0.0543322  
H539     H      0.260280000000     0.779790000000     0.468750000000     0.054147   
H540     H      0.197290000000     0.690830000000     0.475100000000     0.0568877  
H541     H      0.226310000000     0.674670000000     0.442710000000     0.0551985  
H542     H      0.214850000000     0.723510000000     0.437550000000     0.049342   
H543     H      0.229980000000     0.797330000000     0.499890000000     0.0547993  
H544     H      0.235190000000     0.785720000000     0.452240000000     0.0483416  
H545     H      0.203020000000     0.619110000000     0.165040000000     0.0486053  
H546     H      0.214480000000     0.656970000000     0.123110000000     0.0488604  
H547     H      0.189140000000     0.647260000000     0.087240000000     0.054975   
H548     H      0.183880000000     0.641360000000     0.187280000000     0.0533311  
H549     H      0.169210000000     0.585760000000     0.158830000000     0.0499236  
H550     H      0.156050000000     0.632890000000     0.153740000000     0.0470592  
H551     H      0.202690000000     0.704830000000     0.115570000000     0.0532219  
H552     H      0.168940000000     0.673460000000     0.105410000000     0.0510072  
H553     H      0.138140000000     0.909280000000     0.096730000000     0.0399742  
H554     H      0.141300000000     0.956900000000     0.134220000000     0.0573387  
H555     H      0.163270000000     0.930310000000     0.169430000000     0.0687749  
H556     H      0.158100000000     0.906910000000     0.070990000000     0.0539613  
H557     H      0.158100000000     0.849130000000     0.104590000000     0.0468174  
H558     H      0.182800000000     0.874800000000     0.101200000000     0.0565032  
H559     H      0.163740000000     0.989680000000     0.136870000000     0.059246   
H560     H      0.186700000000     0.934990000000     0.149490000000     0.0575381  
H561     H      0.257580000000     0.930770000000     0.983890000000     0.0570712  
H562     H      0.285250000000     0.996290000000     0.006220000000     0.0578548  
H563     H      0.283220000000     0.990100000000     0.055010000000     0.0545389  
H564     H      0.270340000000     0.882990000000     0.987320000000     0.0553752  
H565     H      0.242750000000     0.898030000000     0.023130000000     0.054574   
H566     H      0.268540000000     0.885410000000     0.035760000000     0.0473887  
H567     H      0.309660000000     0.975680000000     0.018220000000     0.0561949  
H568     H      0.292130000000     0.938810000000     0.053680000000     0.0478955  
H569     H      0.174940000000     0.698790000000     0.645000000000     0.052506   
H570     H      0.189690000000     0.641600000000     0.607890000000     0.052811   
H571     H      0.169080000000     0.579940000000     0.612690000000     0.0554863  
H572     H      0.149890000000     0.720590000000     0.636400000000     0.0508649  
H573     H      0.147900000000     0.665940000000     0.671760000000     0.0572398  
H574     H      0.131840000000     0.657330000000     0.642500000000     0.0432015  
H575     H      0.173070000000     0.634650000000     0.578900000000     0.0562485  
H576     H      0.144950000000     0.606870000000     0.606550000000     0.0477652  
H577     H      0.150990000000     0.939830000000     0.576580000000     0.0463279  
H578     H      0.189010000000     0.923800000000     0.592750000000     0.0498822  
H579     H      0.188930000000     0.912750000000     0.641350000000     0.0557361  
H580     H      0.133010000000     0.898840000000     0.571120000000     0.0531355  
H581     H      0.125490000000     0.935870000000     0.613690000000     0.0505613  
H582     H      0.132300000000     0.884300000000     0.619790000000     0.0479478  
H583     H      0.195940000000     0.872330000000     0.599280000000     0.0551142  
H584     H      0.171980000000     0.869780000000     0.637820000000     0.0509688  
H585     H      0.309290000000     0.756590000000     0.895770000000     0.0487118  
H586     H      0.349820000000     0.760520000000     0.885870000000     0.047507   
H587     H      0.357150000000     0.773060000000     0.837650000000     0.0468104  
H588     H      0.294360000000     0.802530000000     0.895020000000     0.0549129  
H589     H      0.290410000000     0.760380000000     0.852910000000     0.0545546  
H590     H      0.300470000000     0.810010000000     0.846700000000     0.0496277  
H591     H      0.361530000000     0.809130000000     0.881200000000     0.0526602  
H592     H      0.341330000000     0.817930000000     0.838740000000     0.0482717  
H593     H      0.280590000000     0.028950000000     0.864680000000     0.0509931  
H594     H      0.309140000000     0.001150000000     0.829860000000     0.048884   
H595     H      0.332740000000     0.056080000000     0.817430000000     0.0508309  
H596     H      0.288540000000     0.033770000000     0.899330000000     0.0562346  
H597     H      0.287590000000     0.099630000000     0.875690000000     0.0548236  
H598     H      0.313590000000     0.087090000000     0.887500000000     0.0508158  
H599     H      0.335060000000     0.990540000000     0.842780000000     0.0471823  
H600     H      0.341370000000     0.061380000000     0.851810000000     0.0433585  
H601     H      0.216570000000     0.034900000000     0.766510000000     0.0498428  
H602     H      0.243690000000     0.639320000000     0.759420000000     0.0554211  
H603     H      0.269260000000     0.686210000000     0.740480000000     0.0548252  
H604     H      0.217410000000     0.015210000000     0.732750000000     0.0558107  
H605     H      0.249790000000     0.053370000000     0.746330000000     0.0547087  
H606     H      0.237230000000     0.073730000000     0.716860000000     0.0529543  
H607     H      0.233820000000     0.657220000000     0.727600000000     0.0549955  
H608     H      0.268400000000     0.661440000000     0.708240000000     0.0483166  
H609     H      0.702370000000     0.057670000000     0.250560000000     0.0510896  
H610     H      0.724870000000     0.051210000000     0.206100000000     0.0501833  
H611     H      0.707350000000     0.086180000000     0.169130000000     0.0548293  
H612     H      0.741780000000     0.604460000000     0.303010000000     0.0548762  
H613     H      0.670490000000     0.096600000000     0.241850000000     0.057452   
H614     H      0.731070000000     0.626990000000     0.258410000000     0.0504842  
H615     H      0.785170000000     0.560240000000     0.243190000000     0.0578546  
H616     H      0.757550000000     0.599250000000     0.221020000000     0.0508468  
H617     H      0.634060000000     0.660120000000     0.157940000000     0.0420649  
H618     H      0.630100000000     0.611360000000     0.119180000000     0.0384045  
H619     H      0.655180000000     0.625120000000     0.083560000000     0.0555136  
H620     H      0.654770000000     0.652620000000     0.182240000000     0.0541418  
H621     H      0.661930000000     0.708280000000     0.149040000000     0.0482255  
H622     H      0.681660000000     0.669620000000     0.149010000000     0.0537659  
H623     H      0.647830000000     0.569470000000     0.116360000000     0.0481682  
H624     H      0.677150000000     0.613840000000     0.105160000000     0.0547302  
H625     H      0.684180000000     0.939460000000     0.075740000000     0.0491224  
H626     H      0.697300000000     0.909220000000     0.119820000000     0.0485014  
H627     H      0.671040000000     0.915710000000     0.155210000000     0.0524206  
H628     H      0.666280000000     0.911060000000     0.054990000000     0.0546334  
H629     H      0.648830000000     0.966860000000     0.080930000000     0.0540558  
H630     H      0.638160000000     0.918090000000     0.088190000000     0.0457829  
H631     H      0.688550000000     0.859880000000     0.129510000000     0.0527152  
H632     H      0.652770000000     0.884380000000     0.137260000000     0.0447548  
H633     H      0.737090000000     0.655440000000     0.020420000000     0.0523512  
H634     H      0.722430000000     0.685220000000     0.974920000000     0.0529497  
H635     H      0.717410000000     0.757840000000     0.979560000000     0.0567837  
H636     H      0.764740000000     0.661540000000     0.027530000000     0.0564897  
H637     H      0.742180000000     0.709110000000     0.053790000000     0.0554359  
H638     H      0.760260000000     0.734580000000     0.031690000000     0.0518441  
H639     H      0.740640000000     0.711040000000     0.953170000000     0.0557422  
H640     H      0.745040000000     0.764890000000     0.986360000000     0.0515435  
H641     H      0.786840000000     0.762340000000     0.387160000000     0.0488555  
H642     H      0.782030000000     0.787230000000     0.339030000000     0.048903   
H643     H      0.810430000000     0.832370000000     0.326360000000     0.0528631  
H644     H      0.804990000000     0.721940000000     0.393740000000     0.0563353  
H645     H      0.818800000000     0.789640000000     0.407380000000     0.0513183  
H646     H      0.835070000000     0.764910000000     0.382800000000     0.0489886  
H647     H      0.797030000000     0.764370000000     0.312320000000     0.0538228  
H648     H      0.829760000000     0.793190000000     0.329580000000     0.045342   
H649     H      0.802950000000     0.015160000000     0.307170000000     0.0546143  
H650     H      0.813390000000     0.072840000000     0.350350000000     0.0556559  
H651     H      0.851130000000     0.066570000000     0.358960000000     0.0689174  
H652     H      0.812410000000     0.032120000000     0.275050000000     0.0535701  
H653     H      0.835760000000     0.980050000000     0.297820000000     0.0513525  
H654     H      0.848830000000     0.026190000000     0.288940000000     0.0422914  
H655     H      0.826640000000     0.116280000000     0.337420000000     0.0553275  
H656     H      0.857190000000     0.076620000000     0.324140000000     0.0470503  
H657     H      0.757050000000     0.004910000000     0.419400000000     0.0501744  
H658     H      0.784920000000     0.047860000000     0.445950000000     0.0500038  
H659     H      0.779930000000     0.038690000000     0.493940000000     0.0559933  
H660     H      0.762190000000     0.952130000000     0.415220000000     0.0541224  
H661     H      0.735000000000     0.967040000000     0.450340000000     0.055154   
H662     H      0.757360000000     0.939980000000     0.463230000000     0.0515031  
H663     H      0.807670000000     0.022490000000     0.459310000000     0.0574905  
H664     H      0.786270000000     0.986200000000     0.491780000000     0.0531012  
H665     H      0.723820000000     0.872110000000     0.573400000000     0.0490864  
H666     H      0.684270000000     0.869460000000     0.562030000000     0.0479552  
H667     H      0.664450000000     0.871700000000     0.603410000000     0.0452708  
H668     H      0.736120000000     0.920200000000     0.578580000000     0.0547964  
H669     H      0.730630000000     0.883210000000     0.621450000000     0.0556238  
H670     H      0.716190000000     0.929670000000     0.620680000000     0.0537691  
H671     H      0.669350000000     0.915400000000     0.562130000000     0.0511446  
H672     H      0.673020000000     0.922050000000     0.610640000000     0.0495595  
H673     H      0.718790000000     0.627220000000     0.634630000000     0.0485944  
H674     H      0.718280000000     0.669510000000     0.592520000000     0.0484407  
H675     H      0.686230000000     0.658900000000     0.566940000000     0.0552477  
H676     H      0.704500000000     0.643580000000     0.664000000000     0.0537159  
H677     H      0.687220000000     0.587210000000     0.638390000000     0.0479899  
H678     H      0.670860000000     0.631090000000     0.642070000000     0.0453988  
H679     H      0.703630000000     0.715800000000     0.592070000000     0.0515918  
H680     H      0.670200000000     0.679730000000     0.593210000000     0.0515418  
H681     H      0.795140000000     0.053090000000     0.858790000000     0.0502984  
H682     H      0.836410000000     0.059800000000     0.852300000000     0.0468317  
H683     H      0.855390000000     0.048730000000     0.895080000000     0.0499717  
H684     H      0.784520000000     0.003520000000     0.863450000000     0.0556938  
H685     H      0.787940000000     0.043690000000     0.906530000000     0.0551314  
H686     H      0.802050000000     0.996850000000     0.906910000000     0.0512047  
H687     H      0.851660000000     0.014280000000     0.850920000000     0.0482196  
H688     H      0.843500000000     0.999990000000     0.898420000000     0.0483145  
H689     H      0.807630000000     0.807540000000     0.899360000000     0.0541208  
H690     H      0.814140000000     0.751740000000     0.856460000000     0.0542521  
H691     H      0.847300000000     0.769740000000     0.834150000000     0.0546011  
H692     H      0.824170000000     0.798700000000     0.928150000000     0.0557011  
H693     H      0.837140000000     0.854620000000     0.898280000000     0.0537401  
H694     H      0.855820000000     0.814440000000     0.902650000000     0.0452316  
H695     H      0.833660000000     0.714240000000     0.863760000000     0.0480732  
H696     H      0.861550000000     0.764650000000     0.865370000000     0.0379898  
H697     H      0.728790000000     0.857670000000     0.787840000000     0.0498269  
H698     H      0.747420000000     0.789890000000     0.784510000000     0.0492869  
H699     H      0.752400000000     0.769300000000     0.737860000000     0.0555704  
H700     H      0.743620000000     0.902900000000     0.781860000000     0.0561966  
H701     H      0.720120000000     0.882490000000     0.743250000000     0.056828   
H702     H      0.747460000000     0.886650000000     0.734270000000     0.0547441  
H703     H      0.775200000000     0.788490000000     0.777120000000     0.054847   
H704     H      0.768850000000     0.812120000000     0.731110000000     0.0546498  
H705     H      0.083150000000     0.772910000000     0.551390000000     0.0532555  
H706     H      0.113670000000     0.746630000000     0.587360000000     0.0654503  
H707     H      0.128670000000     0.806230000000     0.608570000000     0.0586349  
H708     H      0.058550000000     0.785670000000     0.567610000000     0.0474242  
H709     H      0.082710000000     0.845910000000     0.554020000000     0.0480527  
H710     H      0.073660000000     0.844940000000     0.588510000000     0.0475048  
H711     H      0.104660000000     0.745760000000     0.621790000000     0.0589884  
H712     H      0.103890000000     0.818780000000     0.624430000000     0.058161   
H713     H      0.907430000000     0.606740000000     0.917190000000     0.0493558  
H714     H      0.889510000000     0.682130000000     0.915780000000     0.048404   
H715     H      0.873810000000     0.691460000000     0.871200000000     0.0453115  
H716     H      0.888320000000     0.567050000000     0.921850000000     0.0437763  
H717     H      0.902180000000     0.578020000000     0.872860000000     0.0547171  
H718     H      0.874030000000     0.576320000000     0.876770000000     0.0436187  
H719     H      0.861400000000     0.681820000000     0.920780000000     0.0624802  
H720     H      0.855350000000     0.650970000000     0.876660000000     0.0587035  
H721     H      0.999990000000     0.660060000000     0.729620000000     0.0518077  
H722     H      0.980840000000     0.733710000000     0.732150000000     0.0525457  
H723     H      0.978930000000     0.753630000000     0.779400000000     0.054689   
H724     H      0.028250000000     0.660000000000     0.732600000000     0.0561868  
H725     H      0.010270000000     0.638790000000     0.775040000000     0.0571193  
H726     H      0.026150000000     0.683130000000     0.779270000000     0.0519466  
H727     H      0.998100000000     0.775810000000     0.737480000000     0.0547267  
H728     H      0.007200000000     0.752370000000     0.782450000000     0.0523578  
H729     H      0.878340000000     0.804670000000     0.328500000000     0.0458216  
H730     H      0.911400000000     0.780470000000     0.360820000000     0.047754   
H731     H      0.938800000000     0.831440000000     0.356950000000     0.0529663  
H732     H      0.861900000000     0.842480000000     0.343920000000     0.0542911  
H733     H      0.888650000000     0.868070000000     0.307910000000     0.0500462  
H734     H      0.889180000000     0.893430000000     0.340040000000     0.058054   
H735     H      0.912050000000     0.805690000000     0.393040000000     0.0478928  
H736     H      0.922400000000     0.868980000000     0.372650000000     0.0539019  
H737     H      0.174770000000     0.167030000000     0.074520000000     0.0526308  
H738     H      0.183990000000     0.118380000000     0.118560000000     0.0550369  
H739     H      0.182600000000     0.161490000000     0.158020000000     0.0543598  
H740     H      0.146800000000     0.175120000000     0.070210000000     0.0539278  
H741     H      0.167710000000     0.234260000000     0.091880000000     0.050579   
H742     H      0.144750000000     0.217050000000     0.110120000000     0.0616337  
H743     H      0.160860000000     0.102680000000     0.136790000000     0.0508185  
H744     H      0.154610000000     0.169820000000     0.154150000000     0.0499537  
H745     H      0.063590000000     0.929420000000     0.278250000000     0.0599965  
H746     H      0.039550000000     0.011720000000     0.265860000000     0.0589997  
H747     H      0.026220000000     0.030900000000     0.309390000000     0.0537587  
H748     H      0.088090000000     0.943050000000     0.293710000000     0.0550717  
H749     H      0.058960000000     0.921080000000     0.326160000000     0.0546852  
H750     H      0.070950000000     0.968970000000     0.333150000000     0.0467175  
H751     H      0.056450000000     0.050950000000     0.277760000000     0.0540843  
H752     H      0.052260000000     0.031340000000     0.323890000000     0.0460185  
H753     H      0.117080000000     0.766500000000     0.107510000000     0.0677674  
H754     H      0.087860000000     0.716150000000     0.131830000000     0.0667582  
H755     H      0.107440000000     0.662350000000     0.153230000000     0.0364107  
H756     H      0.129650000000     0.800240000000     0.131010000000     0.0530751  
H757     H      0.151690000000     0.738050000000     0.116440000000     0.0517406  
H758     H      0.148930000000     0.746020000000     0.152270000000     0.0653359  
H759     H      0.085300000000     0.724610000000     0.167650000000     0.0494083  
H760     H      0.120160000000     0.696420000000     0.176420000000     0.0486411  
H761     H      0.005770000000     0.627640000000     0.145670000000     0.0511362  
H762     H      0.019140000000     0.675690000000     0.182470000000     0.0512669  
H763     H      0.049780000000     0.648340000000     0.205830000000     0.0529979  
H764     H      0.019820000000     0.625060000000     0.114210000000     0.0555735  
H765     H      0.026860000000     0.566670000000     0.145320000000     0.0527164  
H766     H      0.050120000000     0.594120000000     0.135960000000     0.0456278  
H767     H      0.041830000000     0.706530000000     0.175610000000     0.0514007  
H768     H      0.064860000000     0.647630000000     0.175190000000     0.039794   
H769     H      0.067670000000     0.858920000000     0.174840000000     0.0544132  
H770     H      0.107200000000     0.849970000000     0.157380000000     0.0592455  
H771     H      0.106380000000     0.850070000000     0.108120000000     0.0462629  
H772     H      0.057190000000     0.909070000000     0.175950000000     0.0568552  
H773     H      0.043080000000     0.870500000000     0.137230000000     0.055565   
H774     H      0.058180000000     0.913310000000     0.126450000000     0.0495763  
H775     H      0.120550000000     0.894180000000     0.145590000000     0.0522613  
H776     H      0.096510000000     0.900610000000     0.107570000000     0.0449933  
H777     H      0.887050000000     0.970370000000     0.844690000000     0.046601   
H778     H      0.882510000000     0.988790000000     0.898910000000     0.0403438  
H779     H      0.860500000000     0.936310000000     0.918380000000     0.0472835  
H780     H      0.906910000000     0.932540000000     0.838570000000     0.0465076  
H781     H      0.867900000000     0.908180000000     0.836580000000     0.0658971  
H782     H      0.885150000000     0.880010000000     0.858510000000     0.0514688  
H783     H      0.899770000000     0.959990000000     0.920360000000     0.0556921  
H784     H      0.880200000000     0.898280000000     0.912160000000     0.0644046  
H785     H      0.921520000000     0.719120000000     0.925440000000     0.0451009  
H786     H      0.894660000000     0.750570000000     0.893350000000     0.0392298  
H787     H      0.905530000000     0.818030000000     0.882090000000     0.0485206  
H788     H      0.944940000000     0.696350000000     0.911790000000     0.0523953  
H789     H      0.951800000000     0.762580000000     0.933520000000     0.0537909  
H790     H      0.958500000000     0.762510000000     0.898300000000     0.05306    
H791     H      0.900370000000     0.751950000000     0.857810000000     0.0489939  
H792     H      0.928590000000     0.800250000000     0.864740000000     0.0517244  
H793     H      0.996540000000     0.029030000000     0.890530000000     0.0484126  
H794     H      0.983450000000     0.985530000000     0.853040000000     0.0486222  
H795     H      0.950550000000     0.952570000000     0.864240000000     0.0536461  
H796     H      0.985320000000     0.078080000000     0.895700000000     0.0535458  
H797     H      0.973440000000     0.024870000000     0.928980000000     0.0549248  
H798     H      0.952380000000     0.049580000000     0.911560000000     0.047677   
H799     H      0.963240000000     0.003770000000     0.830640000000     0.0530151  
H800     H      0.936830000000     0.999610000000     0.865940000000     0.0452834  
H801     H      0.978540000000     0.855250000000     0.055860000000     0.0502276  
H802     H      0.008990000000     0.886320000000     0.027570000000     0.0501887  
H803     H      0.030440000000     0.833450000000     0.006690000000     0.056014   
H804     H      0.955710000000     0.836340000000     0.038460000000     0.0558496  
H805     H      0.980150000000     0.781790000000     0.054110000000     0.0557739  
H806     H      0.976690000000     0.782320000000     0.018130000000     0.0527923  
H807     H      0.006160000000     0.888270000000     0.991510000000     0.0553099  
H808     H      0.007880000000     0.814680000000     0.988710000000     0.0538377  
H809     H      0.870930000000     0.654140000000     0.405270000000     0.0570756  
H810     H      0.863830000000     0.700740000000     0.450630000000     0.0600446  
H811     H      0.882350000000     0.763660000000     0.443230000000     0.0520878  
H812     H      0.853780000000     0.666740000000     0.377450000000     0.0621071  
H813     H      0.892250000000     0.693950000000     0.374150000000     0.0527659  
H814     H      0.871590000000     0.730770000000     0.370170000000     0.0469442  
H815     H      0.843420000000     0.737880000000     0.445740000000     0.0451664  
H816     H      0.865360000000     0.777230000000     0.415490000000     0.0506791  
H817     H      0.001080000000     0.800140000000     0.402120000000     0.0528037  
H818     H      0.998930000000     0.751400000000     0.362290000000     0.0501646  
H819     H      0.965760000000     0.714950000000     0.362060000000     0.0544366  
H820     H      0.987230000000     0.847220000000     0.400210000000     0.0555468  
H821     H      0.969590000000     0.795340000000     0.429560000000     0.0543346  
H822     H      0.953220000000     0.813520000000     0.402730000000     0.0430843  
H823     H      0.984050000000     0.765590000000     0.332920000000     0.0549111  
H824     H      0.950910000000     0.760350000000     0.357750000000     0.0447618  
H825     H      0.938230000000     0.044260000000     0.330860000000     0.054956   
H826     H      0.928070000000     0.986440000000     0.376550000000     0.0533523  
H827     H      0.889780000000     0.985180000000     0.379460000000     0.0675108  
H828     H      0.932400000000     0.020850000000     0.299190000000     0.0535926  
H829     H      0.904070000000     0.068920000000     0.316490000000     0.0467472  
H830     H      0.895100000000     0.019010000000     0.308570000000     0.0426395  
H831     H      0.918880000000     0.939740000000     0.362950000000     0.0524825  
H832     H      0.887500000000     0.970560000000     0.344600000000     0.0521394  
H833     H      0.115460000000     0.062720000000     0.573370000000     0.040942   
H834     H      0.095320000000     0.062120000000     0.623090000000     0.0539582  
H835     H      0.067160000000     0.012940000000     0.619430000000     0.0472871  
H836     H      0.134340000000     0.022420000000     0.569690000000     0.0436553  
H837     H      0.098400000000     0.012340000000     0.545100000000     0.0576893  
H838     H      0.106580000000     0.971960000000     0.567070000000     0.04687    
H839     H      0.103250000000     0.020900000000     0.644140000000     0.0705355  
H840     H      0.085580000000     0.971820000000     0.616040000000     0.0464105  
H841     H      0.046380000000     0.642860000000     0.593830000000     0.0527174  
H842     H      0.072720000000     0.606800000000     0.631700000000     0.0508605  
H843     H      0.105820000000     0.591810000000     0.608970000000     0.0492071  
H844     H      0.051380000000     0.695250000000     0.587800000000     0.0557554  
H845     H      0.065840000000     0.651750000000     0.551360000000     0.0543951  
H846     H      0.086020000000     0.680000000000     0.568460000000     0.0524689  
H847     H      0.092820000000     0.638880000000     0.645330000000     0.0511826  
H848     H      0.110190000000     0.644170000000     0.601800000000     0.0448298  
H849     H      0.994620000000     0.886780000000     0.612660000000     0.0473581  
H850     H      0.018440000000     0.935120000000     0.637470000000     0.048601   
H851     H      0.052520000000     0.905180000000     0.646920000000     0.0519363  
H852     H      0.997760000000     0.880030000000     0.576890000000     0.0531515  
H853     H      0.012190000000     0.823110000000     0.604750000000     0.0558522  
H854     H      0.031490000000     0.846220000000     0.583320000000     0.0467685  
H855     H      0.038230000000     0.962520000000     0.619180000000     0.0486801  
H856     H      0.058680000000     0.901600000000     0.611700000000     0.043981   
H857     H      0.999480000000     0.589140000000     0.519620000000     0.0527738  
H858     H      0.023920000000     0.612000000000     0.475470000000     0.0537878  
H859     H      0.038280000000     0.551190000000     0.454570000000     0.0562824  
H860     H      0.974020000000     0.568850000000     0.511340000000     0.0558767  
H861     H      0.950820000000     0.015830000000     0.506790000000     0.0558915  
H862     H      0.942560000000     0.007280000000     0.472600000000     0.0514302  
H863     H      0.011700000000     0.604420000000     0.443180000000     0.0554818  
H864     H      0.968790000000     0.028540000000     0.433650000000     0.0507894  
H865     H      0.602070000000     0.754650000000     0.087800000000     0.0590593  
H866     H      0.629170000000     0.741100000000     0.129950000000     0.0556846  
H867     H      0.646210000000     0.804890000000     0.139830000000     0.0538961  
H868     H      0.577270000000     0.776250000000     0.097930000000     0.0511984  
H869     H      0.604030000000     0.826080000000     0.076370000000     0.0534362  
H870     H      0.593630000000     0.840470000000     0.108800000000     0.0479303  
H871     H      0.618810000000     0.756550000000     0.162200000000     0.0557833  
H872     H      0.621700000000     0.827300000000     0.150760000000     0.0484218  
H873     H      0.389260000000     0.648020000000     0.377260000000     0.0639823  
H874     H      0.367360000000     0.576550000000     0.375670000000     0.0481118  
H875     H      0.366130000000     0.551350000000     0.421670000000     0.0425353  
H876     H      0.373430000000     0.690080000000     0.388100000000     0.0603384  
H877     H      0.398990000000     0.660470000000     0.424090000000     0.0602794  
H878     H      0.371740000000     0.665090000000     0.434140000000     0.0644062  
H879     H      0.340220000000     0.581830000000     0.386160000000     0.0489473  
H880     H      0.350120000000     0.592940000000     0.432790000000     0.0665362  
H881     H      0.496240000000     0.761020000000     0.293710000000     0.0515943  
H882     H      0.466660000000     0.764230000000     0.254990000000     0.0518752  
H883     H      0.477270000000     0.722140000000     0.217130000000     0.0556542  
H884     H      0.496630000000     0.716790000000     0.314490000000     0.0552227  
H885     H      0.524890000000     0.717340000000     0.279160000000     0.0555324  
H886     H      0.507320000000     0.675130000000     0.276530000000     0.0513156  
H887     H      0.449060000000     0.722040000000     0.252430000000     0.0560105  
H888     H      0.477760000000     0.678170000000     0.238160000000     0.0516797  
H889     H      0.657900000000     0.754540000000     0.644290000000     0.0625823  
H890     H      0.635660000000     0.703010000000     0.676930000000     0.0548075  
H891     H      0.599470000000     0.727510000000     0.678080000000     0.0446317  
H892     H      0.654540000000     0.744730000000     0.608740000000     0.0518817  
H893     H      0.633550000000     0.805390000000     0.628100000000     0.0574899  
H894     H      0.618250000000     0.768700000000     0.609670000000     0.0644665  
H895     H      0.620370000000     0.666590000000     0.658580000000     0.0383681  
H896     H      0.595720000000     0.717580000000     0.642610000000     0.0535068  
H897     H      0.360180000000     0.005730000000     0.416190000000     0.0448651  
H898     H      0.371820000000     0.020480000000     0.363420000000     0.042124   
H899     H      0.398890000000     0.971450000000     0.352030000000     0.0449848  
H900     H      0.341880000000     0.964470000000     0.419560000000     0.0446532  
H901     H      0.380930000000     0.948800000000     0.431860000000     0.0629622  
H902     H      0.368770000000     0.915270000000     0.407830000000     0.0514362  
H903     H      0.359640000000     0.986610000000     0.339640000000     0.052874   
H904     H      0.380630000000     0.930070000000     0.355310000000     0.0547411  
H905     H      0.444950000000     0.828060000000     0.396370000000     0.0537793  
H906     H      0.419470000000     0.783580000000     0.433790000000     0.0528232  
H907     H      0.389930000000     0.826880000000     0.445290000000     0.0532904  
H908     H      0.434630000000     0.828050000000     0.362650000000     0.0546444  
H909     H      0.427180000000     0.892010000000     0.387340000000     0.0538498  
H910     H      0.403730000000     0.866190000000     0.376530000000     0.0459945  
H911     H      0.396080000000     0.762970000000     0.418800000000     0.0470801  
H912     H      0.381530000000     0.829290000000     0.410730000000     0.0383029  
H913     H      0.456440000000     0.048110000000     0.389110000000     0.0514319  
H914     H      0.415430000000     0.031060000000     0.382300000000     0.0502558  
H915     H      0.395340000000     0.040790000000     0.424410000000     0.0530764  
H916     H      0.463280000000     0.100130000000     0.393050000000     0.0551231  
H917     H      0.461920000000     0.060900000000     0.436850000000     0.0554995  
H918     H      0.444850000000     0.103990000000     0.435890000000     0.0498788  
H919     H      0.397590000000     0.072790000000     0.379450000000     0.0465548  
H920     H      0.404520000000     0.091790000000     0.426730000000     0.0502739  
H921     H      0.502840000000     0.904000000000     0.554820000000     0.05186    
H922     H      0.482330000000     0.833450000000     0.549260000000     0.0524862  
H923     H      0.472050000000     0.823860000000     0.502110000000     0.0548305  
H924     H      0.529660000000     0.905620000000     0.543100000000     0.05464    
H925     H      0.503780000000     0.937700000000     0.511230000000     0.055823   
H926     H      0.518430000000     0.896950000000     0.496500000000     0.0513593  
H927     H      0.497060000000     0.792580000000     0.534850000000     0.0559221  
H928     H      0.499100000000     0.827080000000     0.491440000000     0.0513358  
H929     H      0.613940000000     0.996220000000     0.609910000000     0.0581886  
H930     H      0.639660000000     0.051980000000     0.634500000000     0.0642102  
H931     H      0.675310000000     0.041430000000     0.617470000000     0.0511515  
H932     H      0.606530000000     0.009780000000     0.575980000000     0.047216   
H933     H      0.636350000000     0.956080000000     0.580450000000     0.0400832  
H934     H      0.642080000000     0.998590000000     0.559140000000     0.0664487  
H935     H      0.645440000000     0.094790000000     0.613410000000     0.0384809  
H936     H      0.667550000000     0.055120000000     0.583600000000     0.0625849  
H937     H      0.547930000000     0.619510000000     0.607420000000     0.0503358  
H938     H      0.525060000000     0.661240000000     0.639290000000     0.0509082  
H939     H      0.540570000000     0.663810000000     0.683990000000     0.05547    
H940     H      0.570940000000     0.642030000000     0.592510000000     0.0554045  
H941     H      0.579020000000     0.594180000000     0.630190000000     0.0521304  
H942     H      0.588800000000     0.644020000000     0.635920000000     0.0418718  
H943     H      0.532500000000     0.712300000000     0.646420000000     0.0558177  
H944     H      0.563310000000     0.690200000000     0.671740000000     0.0451096  
H945     H      0.622050000000     0.852440000000     0.675980000000     0.0619023  
H946     H      0.640580000000     0.887500000000     0.639440000000     0.0534638  
H947     H      0.618780000000     0.891220000000     0.599680000000     0.0461343  
H948     H      0.604140000000     0.879170000000     0.697670000000     0.056868   
H949     H      0.586270000000     0.833600000000     0.664260000000     0.0556864  
H950     H      0.578350000000     0.885130000000     0.661240000000     0.0541965  
H951     H      0.635730000000     0.939840000000     0.632870000000     0.0505085  
H952     H      0.600640000000     0.925190000000     0.615490000000     0.0486717  
H953     H      0.395420000000     0.784050000000     0.834780000000     0.0372531  
H954     H      0.368070000000     0.821210000000     0.799440000000     0.0466722  
H955     H      0.359370000000     0.886550000000     0.818450000000     0.0457714  
H956     H      0.422230000000     0.801460000000     0.831880000000     0.0460267  
H957     H      0.400330000000     0.829610000000     0.872390000000     0.0434528  
H958     H      0.413650000000     0.866090000000     0.851700000000     0.068998   
H959     H      0.380790000000     0.857600000000     0.778010000000     0.0553851  
H960     H      0.386190000000     0.903980000000     0.815150000000     0.0618513  
H961     H      0.547550000000     0.932420000000     0.762460000000     0.0527091  
H962     H      0.525580000000     0.949160000000     0.715120000000     0.0524396  
H963     H      0.492640000000     0.982810000000     0.726650000000     0.056006   
H964     H      0.560160000000     0.975030000000     0.777730000000     0.0569981  
H965     H      0.526030000000     0.954890000000     0.799970000000     0.0549182  
H966     H      0.526590000000     0.005970000000     0.788210000000     0.0504762  
H967     H      0.526740000000     0.000660000000     0.704350000000     0.0543415  
H968     H      0.506600000000     0.022750000000     0.743280000000     0.0502164  
H969     H      0.608990000000     0.943950000000     0.150860000000     0.0604572  
H970     H      0.568970000000     0.942610000000     0.172570000000     0.0527771  
H971     H      0.544630000000     0.962890000000     0.136980000000     0.0522943  
H972     H      0.614980000000     0.900260000000     0.130740000000     0.0441253  
H973     H      0.605450000000     0.965260000000     0.104040000000     0.0630738  
H974     H      0.590710000000     0.920750000000     0.095310000000     0.0510992  
H975     H      0.554300000000     0.898020000000     0.163900000000     0.0524023  
H976     H      0.550950000000     0.919180000000     0.116950000000     0.052096   
H977     H      0.536400000000     0.615430000000     0.124910000000     0.0539512  
H978     H      0.572790000000     0.651410000000     0.101410000000     0.0522645  
H979     H      0.596610000000     0.668080000000     0.138180000000     0.0494257  
H980     H      0.540210000000     0.563910000000     0.134640000000     0.053117   
H981     H      0.542140000000     0.611510000000     0.173640000000     0.0544085  
H982     H      0.565890000000     0.582760000000     0.168760000000     0.0498385  
H983     H      0.595150000000     0.618540000000     0.099680000000     0.0491213  
H984     H      0.598100000000     0.616310000000     0.148520000000     0.0418283  
H985     H      0.551850000000     0.844170000000     0.099190000000     0.0439059  
H986     H      0.521510000000     0.888220000000     0.140580000000     0.0435214  
H987     H      0.493580000000     0.910250000000     0.111880000000     0.0528461  
H988     H      0.541090000000     0.794970000000     0.093770000000     0.0471896  
H989     H      0.532830000000     0.844530000000     0.056790000000     0.0527434  
H990     H      0.510190000000     0.820960000000     0.071950000000     0.0483785  
H991     H      0.500270000000     0.854600000000     0.146980000000     0.0528779  
H992     H      0.486880000000     0.859730000000     0.102440000000     0.0480179  
H993     H      0.389830000000     0.748280000000     0.879150000000     0.0385429  
H994     H      0.366530000000     0.712140000000     0.919510000000     0.0487974  
H995     H      0.346410000000     0.658520000000     0.898510000000     0.048282   
H996     H      0.413460000000     0.721010000000     0.870540000000     0.0473633  
H997     H      0.381960000000     0.712720000000     0.837410000000     0.0526093  
H998     H      0.393670000000     0.666990000000     0.849700000000     0.0561197  
H999     H      0.378140000000     0.666050000000     0.931640000000     0.0596322  
H1000    H      0.369950000000     0.630660000000     0.890230000000     0.0518375  
H1001    H      0.435690000000     0.046120000000     0.834010000000     0.055617   
H1002    H      0.414740000000     0.983920000000     0.870610000000     0.0567989  
H1003    H      0.379360000000     0.009580000000     0.877420000000     0.0630847  
H1004    H      0.426690000000     0.039130000000     0.800060000000     0.0541869  
H1005    H      0.408430000000     0.095600000000     0.824800000000     0.0480814  
H1006    H      0.391010000000     0.057670000000     0.811620000000     0.042501   
H1007    H      0.397280000000     0.953370000000     0.851010000000     0.0531247  
H1008    H      0.374080000000     0.009030000000     0.841750000000     0.0416019  
H1009    H      0.434370000000     0.791050000000     0.880660000000     0.0390369  
H1010    H      0.447500000000     0.739410000000     0.838850000000     0.0435774  
H1011    H      0.479040000000     0.768380000000     0.818630000000     0.0553706  
H1012    H      0.449690000000     0.787080000000     0.910940000000     0.0536625  
H1013    H      0.459140000000     0.847020000000     0.882770000000     0.0525585  
H1014    H      0.480880000000     0.813450000000     0.888770000000     0.0508564  
H1015    H      0.469760000000     0.708520000000     0.847270000000     0.0536908  
H1016    H      0.492890000000     0.766410000000     0.850250000000     0.0506201  
H1017    H      0.537480000000     0.595420000000     0.943280000000     0.0490101  
H1018    H      0.474050000000     0.006510000000     0.942890000000     0.0496843  
H1019    H      0.470920000000     0.985470000000     0.989870000000     0.0555631  
H1020    H      0.522310000000     0.638150000000     0.954160000000     0.0546985  
H1021    H      0.544920000000     0.606940000000     0.990060000000     0.0554644  
H1022    H      0.517390000000     0.608970000000     0.998910000000     0.055091   
H1023    H      0.491540000000     0.524310000000     0.942160000000     0.0551297  
H1024    H      0.496550000000     0.531630000000     0.990590000000     0.0553627  
N1       N      0.257850000000     0.328540000000     0.231800000000    -0.150412   
N2       N      0.286490000000     0.385140000000     0.251310000000    -0.151265   
N3       N      0.325820000000     0.222900000000     0.385480000000    -0.151876   
N4       N      0.327690000000     0.295140000000     0.357350000000    -0.151668   
N5       N      0.296430000000     0.552490000000     0.399190000000    -0.152192   
N6       N      0.314850000000     0.496970000000     0.364050000000    -0.152888   
N7       N      0.235920000000     0.242500000000     0.462480000000    -0.151736   
N8       N      0.207700000000     0.266470000000     0.502690000000    -0.150174   
N9       N      0.227600000000     0.117440000000     0.105890000000    -0.151658   
N10      N      0.240110000000     0.181730000000     0.137980000000    -0.151214   
N11      N      0.175790000000     0.357030000000     0.149100000000    -0.152906   
N12      N      0.148860000000     0.413090000000     0.125540000000    -0.15271    
N13      N      0.207870000000     0.467390000000     0.028260000000    -0.151059   
N14      N      0.237290000000     0.453970000000     0.987210000000    -0.150728   
N15      N      0.151400000000     0.118940000000     0.622940000000    -0.152649   
N16      N      0.157000000000     0.198440000000     0.606400000000    -0.152363   
N17      N      0.186430000000     0.431370000000     0.668980000000    -0.151351   
N18      N      0.175030000000     0.390760000000     0.622010000000    -0.152012   
N19      N      0.280690000000     0.270090000000     0.838310000000    -0.152055   
N20      N      0.285690000000     0.305730000000     0.888910000000    -0.151197   
N21      N      0.307550000000     0.573070000000     0.868920000000    -0.15338    
N22      N      0.304850000000     0.496900000000     0.891840000000    -0.153641   
N23      N      0.233330000000     0.109500000000     0.751830000000    -0.150529   
N24      N      0.244560000000     0.595870000000     0.728190000000    -0.149981   
N25      N      0.731610000000     0.570150000000     0.239460000000    -0.151016   
N26      N      0.723990000000     0.099220000000     0.233970000000    -0.151163   
N27      N      0.640290000000     0.202560000000     0.093330000000    -0.150138   
N28      N      0.614450000000     0.147410000000     0.119060000000    -0.151312   
N29      N      0.701640000000     0.420650000000     0.146950000000    -0.150594   
N30      N      0.714800000000     0.359160000000     0.112610000000    -0.151219   
N31      N      0.732940000000     0.196460000000     0.025710000000    -0.15105    
N32      N      0.770250000000     0.180350000000     0.997320000000    -0.149524   
N33      N      0.757440000000     0.297150000000     0.371320000000    -0.152488   
N34      N      0.749100000000     0.239710000000     0.331600000000    -0.151315   
N35      N      0.814640000000     0.458840000000     0.411280000000    -0.153447   
N36      N      0.819890000000     0.524680000000     0.377430000000    -0.149676   
N37      N      0.685920000000     0.486240000000     0.485710000000    -0.149363   
N38      N      0.708250000000     0.457340000000     0.441400000000    -0.151301   
N39      N      0.681500000000     0.368660000000     0.645470000000    -0.152522   
N40      N      0.670210000000     0.416290000000     0.601490000000    -0.150904   
N41      N      0.716170000000     0.121590000000     0.592450000000    -0.15273    
N42      N      0.723770000000     0.176310000000     0.634240000000    -0.152022   
N43      N      0.813740000000     0.548870000000     0.905560000000    -0.151378   
N44      N      0.815930000000     0.506120000000     0.857320000000    -0.151927   
N45      N      0.848410000000     0.321920000000     0.878520000000    -0.15184    
N46      N      0.838350000000     0.252730000000     0.907310000000    -0.152385   
N47      N      0.743500000000     0.305710000000     0.746590000000    -0.150288   
N48      N      0.769410000000     0.328340000000     0.789620000000    -0.150846   
N49      N      0.085370000000     0.261030000000     0.543760000000    -0.0905885  
N50      N      0.101670000000     0.197750000000     0.515980000000    -0.0973322  
N51      N      0.891770000000     0.103830000000     0.849300000000    -0.0904781  
N52      N      0.897810000000     0.095720000000     0.903290000000    -0.0903468  
N53      N      0.002300000000     0.188080000000     0.762710000000    -0.150105   
N54      N      0.025120000000     0.198320000000     0.714880000000    -0.150615   
N55      N      0.835480000000     0.342500000000     0.397970000000    -0.0919786  
N56      N      0.827370000000     0.285740000000     0.436020000000    -0.0896483  
N57      N      0.084690000000     0.542190000000     0.167570000000    -0.0858142  
N58      N      0.113130000000     0.537580000000     0.126730000000    -0.079612   
N59      N      0.945230000000     0.468720000000     0.290250000000    -0.151061   
N60      N      0.983230000000     0.470950000000     0.261480000000    -0.151996   
N61      N      0.114850000000     0.251080000000     0.148920000000    -0.0891423  
N62      N      0.117360000000     0.281410000000     0.199730000000    -0.0948593  
N63      N      0.093770000000     0.102850000000     0.152000000000    -0.15259    
N64      N      0.082610000000     0.157800000000     0.111750000000    -0.152383   
N65      N      0.076960000000     0.357670000000     0.151700000000    -0.153247   
N66      N      0.072510000000     0.405730000000     0.197620000000    -0.151843   
N67      N      0.875200000000     0.398870000000     0.899120000000    -0.0938706  
N68      N      0.903380000000     0.419970000000     0.860310000000    -0.0969087  
N69      N      0.943890000000     0.311550000000     0.904840000000    -0.154181   
N70      N      0.952480000000     0.239600000000     0.878340000000    -0.151783   
N71      N      0.948240000000     0.496820000000     0.917220000000    -0.152448   
N72      N      0.952160000000     0.533650000000     0.866930000000    -0.151765   
N73      N      0.042110000000     0.318100000000     0.025730000000    -0.15132    
N74      N      0.002950000000     0.351500000000     0.012650000000    -0.149589   
N75      N      0.860920000000     0.164880000000     0.346630000000    -0.087018   
N76      N      0.843040000000     0.217010000000     0.311130000000    -0.0889588  
N77      N      0.905500000000     0.244930000000     0.379840000000    -0.152737   
N78      N      0.891100000000     0.314350000000     0.353990000000    -0.151335   
N79      N      0.903120000000     0.578240000000     0.403480000000    -0.152368   
N80      N      0.876170000000     0.526290000000     0.376230000000    -0.151724   
N81      N      0.115890000000     0.450930000000     0.609750000000    -0.0972307  
N82      N      0.136070000000     0.522890000000     0.607690000000    -0.0941766  
N83      N      0.048630000000     0.106110000000     0.548660000000    -0.151839   
N84      N      0.057440000000     0.150660000000     0.594880000000    -0.153781   
N85      N      0.080860000000     0.342380000000     0.619070000000    -0.150169   
N86      N      0.071410000000     0.402390000000     0.581400000000    -0.151957   
N87      N      0.021330000000     0.532170000000     0.490120000000    -0.151441   
N88      N      0.945550000000     0.087770000000     0.457980000000    -0.151515   
N89      N      0.641880000000     0.380310000000     0.142300000000    -0.0963012  
N90      N      0.620620000000     0.320300000000     0.116900000000    -0.0936009  
N91      N      0.361020000000     0.109470000000     0.412220000000    -0.0983753  
N92      N      0.339370000000     0.129930000000     0.366910000000    -0.0942056  
N93      N      0.511120000000     0.230570000000     0.251470000000    -0.149793   
N94      N      0.483730000000     0.225930000000     0.295680000000    -0.150461   
N95      N      0.636820000000     0.225910000000     0.636080000000    -0.0852713  
N96      N      0.666050000000     0.224760000000     0.595950000000    -0.094344   
N97      N      0.400940000000     0.455020000000     0.381620000000    -0.0946326  
N98      N      0.373980000000     0.448510000000     0.424070000000    -0.0966516  
N99      N      0.420940000000     0.334890000000     0.409650000000    -0.15097    
N100     N      0.401150000000     0.280010000000     0.375840000000    -0.153892   
N101     N      0.462910000000     0.526030000000     0.421560000000    -0.151614   
N102     N      0.444690000000     0.585910000000     0.389450000000    -0.152291   
N103     N      0.514180000000     0.350550000000     0.475360000000    -0.151353   
N104     N      0.544290000000     0.327320000000     0.513610000000    -0.149786   
N105     N      0.635400000000     0.526550000000     0.682200000000    -0.0834501  
N106     N      0.623780000000     0.543810000000     0.630730000000    -0.0806465  
N107     N      0.589010000000     0.124540000000     0.651010000000    -0.151723   
N108     N      0.576230000000     0.188700000000     0.618180000000    -0.151473   
N109     N      0.585060000000     0.386720000000     0.628250000000    -0.152926   
N110     N      0.571880000000     0.430690000000     0.673100000000    -0.15168    
N111     N      0.361500000000     0.393720000000     0.868750000000    -0.0909061  
N112     N      0.334700000000     0.382890000000     0.826550000000    -0.0955474  
N113     N      0.485950000000     0.482680000000     0.806350000000    -0.151077   
N114     N      0.518040000000     0.503000000000     0.770270000000    -0.14988    
N115     N      0.591360000000     0.504440000000     0.158870000000    -0.0935326  
N116     N      0.611190000000     0.456850000000     0.122210000000    -0.0892908  
N117     N      0.544980000000     0.133190000000     0.149930000000    -0.151456   
N118     N      0.543000000000     0.083170000000     0.104770000000    -0.150838   
N119     N      0.544420000000     0.391600000000     0.087760000000    -0.151768   
N120     N      0.551190000000     0.335490000000     0.128940000000    -0.152928   
N121     N      0.354350000000     0.171590000000     0.815590000000    -0.0851308  
N122     N      0.353050000000     0.193740000000     0.868370000000    -0.0891782  
N123     N      0.407240000000     0.558520000000     0.891630000000    -0.151148   
N124     N      0.390150000000     0.496640000000     0.861590000000    -0.153819   
N125     N      0.427290000000     0.304040000000     0.848020000000    -0.151817   
N126     N      0.416160000000     0.245730000000     0.886110000000    -0.150224   
N127     N      0.528450000000     0.550330000000     0.989960000000    -0.150318   
N128     N      0.464120000000     0.066510000000     0.948930000000    -0.150645   
N129     N      0.230780000000     0.824310000000     0.239750000000    -0.150852   
N130     N      0.260090000000     0.876620000000     0.263140000000    -0.150902   
N131     N      0.337740000000     0.738510000000     0.383810000000    -0.151585   
N132     N      0.328550000000     0.807920000000     0.354940000000    -0.150018   
N133     N      0.272910000000     0.051370000000     0.408030000000    -0.152106   
N134     N      0.289700000000     0.999480000000     0.369450000000    -0.151061   
N135     N      0.245190000000     0.725330000000     0.455180000000    -0.151762   
N136     N      0.213270000000     0.742020000000     0.492440000000    -0.149864   
N137     N      0.175510000000     0.615740000000     0.121030000000    -0.150226   
N138     N      0.192910000000     0.676780000000     0.152730000000    -0.151397   
N139     N      0.167220000000     0.886170000000     0.138170000000    -0.151536   
N140     N      0.163240000000     0.950190000000     0.102520000000    -0.151882   
N141     N      0.261060000000     0.947050000000     0.039170000000    -0.151537   
N142     N      0.289320000000     0.934740000000     0.996850000000    -0.149065   
N143     N      0.158880000000     0.620320000000     0.644210000000    -0.152957   
N144     N      0.163870000000     0.681830000000     0.606440000000    -0.153042   
N145     N      0.156480000000     0.925000000000     0.630690000000    -0.151802   
N146     N      0.164690000000     0.882680000000     0.583270000000    -0.151189   
N147     N      0.323560000000     0.764510000000     0.842870000000    -0.152982   
N148     N      0.328150000000     0.808350000000     0.890300000000    -0.151594   
N149     N      0.310150000000     0.081580000000     0.845240000000    -0.15297    
N150     N      0.311590000000     0.008080000000     0.872100000000    -0.152634   
N151     N      0.284420000000     0.628340000000     0.738280000000    -0.151306   
N152     N      0.196880000000     0.066060000000     0.739240000000    -0.150675   
N153     N      0.686880000000     0.092840000000     0.203710000000    -0.150446   
N154     N      0.765170000000     0.580590000000     0.275700000000    -0.150039   
N155     N      0.662130000000     0.668900000000     0.114420000000    -0.152155   
N156     N      0.652280000000     0.607960000000     0.150900000000    -0.154784   
N157     N      0.656610000000     0.941970000000     0.119920000000    -0.152967   
N158     N      0.677350000000     0.881680000000     0.091090000000    -0.151628   
N159     N      0.728610000000     0.736340000000     0.018140000000    -0.151112   
N160     N      0.753970000000     0.683680000000     0.988890000000    -0.151003   
N161     N      0.817900000000     0.813820000000     0.366970000000    -0.152399   
N162     N      0.801380000000     0.739290000000     0.352050000000    -0.151419   
N163     N      0.842970000000     0.020030000000     0.330680000000    -0.152786   
N164     N      0.814840000000     0.074540000000     0.307740000000    -0.152372   
N165     N      0.756360000000     0.000710000000     0.475660000000    -0.150615   
N166     N      0.786430000000     0.986500000000     0.435300000000    -0.150845   
N167     N      0.696770000000     0.878350000000     0.616480000000    -0.151532   
N168     N      0.702870000000     0.921120000000     0.568800000000    -0.151331   
N169     N      0.682180000000     0.622100000000     0.602380000000    -0.1513     
N170     N      0.703600000000     0.683210000000     0.629670000000    -0.151767   
N171     N      0.821890000000     0.047650000000     0.903640000000    -0.151473   
N172     N      0.817860000000     0.007040000000     0.854610000000    -0.151352   
N173     N      0.841310000000     0.815050000000     0.864280000000    -0.153255   
N174     N      0.825380000000     0.753890000000     0.896620000000    -0.15242    
N175     N      0.736570000000     0.826640000000     0.735970000000    -0.150487   
N176     N      0.761200000000     0.847450000000     0.780560000000    -0.150904   
N177     N      0.105330000000     0.829230000000     0.582830000000    -0.0900838  
N178     N      0.082020000000     0.762490000000     0.593010000000    -0.0888111  
N179     N      0.886690000000     0.633480000000     0.870180000000    -0.0853555  
N180     N      0.876250000000     0.625660000000     0.923130000000    -0.0849909  
N181     N      0.993350000000     0.694810000000     0.779240000000    -0.15169    
N182     N      0.013200000000     0.718350000000     0.731460000000    -0.150235   
N183     N      0.914270000000     0.853800000000     0.332940000000    -0.0872905  
N184     N      0.886420000000     0.820280000000     0.368100000000    -0.0939533  
N185     N      0.173900000000     0.200150000000     0.126550000000    -0.0890763  
N186     N      0.155260000000     0.136450000000     0.101790000000    -0.0955124  
N187     N      0.040340000000     0.973090000000     0.316400000000    -0.151387   
N188     N      0.070030000000     0.991830000000     0.277220000000    -0.148847   
N189     N      0.130890000000     0.699040000000     0.136480000000    -0.0970582  
N190     N      0.105940000000     0.763520000000     0.147290000000    -0.0861479  
N191     N      0.040810000000     0.603550000000     0.176420000000    -0.152232   
N192     N      0.031130000000     0.668650000000     0.142980000000    -0.151921   
N193     N      0.073960000000     0.858010000000     0.120520000000    -0.151779   
N194     N      0.089770000000     0.903320000000     0.163260000000    -0.150724   
N195     N      0.863970000000     0.918650000000     0.878020000000    -0.0887321  
N196     N      0.903420000000     0.950380000000     0.878860000000    -0.0930908  
N197     N      0.930770000000     0.795430000000     0.907150000000    -0.151695   
N198     N      0.923120000000     0.721400000000     0.882840000000    -0.153431   
N199     N      0.957320000000     0.989560000000     0.898970000000    -0.151563   
N200     N      0.973270000000     0.044540000000     0.861840000000    -0.152609   
N201     N      0.006560000000     0.803690000000     0.030680000000    -0.149948   
N202     N      0.979520000000     0.864740000000     0.013710000000    -0.152079   
N203     N      0.887440000000     0.731990000000     0.407260000000    -0.0893818  
N204     N      0.848500000000     0.698770000000     0.413230000000    -0.0943186  
N205     N      0.964040000000     0.754070000000     0.396750000000    -0.152487   
N206     N      0.985750000000     0.809570000000     0.364830000000    -0.151679   
N207     N      0.897370000000     0.030630000000     0.350340000000    -0.152015   
N208     N      0.930850000000     0.982430000000     0.334100000000    -0.151047   
N209     N      0.082300000000     0.008500000000     0.581960000000    -0.0867696  
N210     N      0.119270000000     0.025830000000     0.607230000000    -0.0872438  
N211     N      0.085780000000     0.618280000000     0.578660000000    -0.151863   
N212     N      0.069830000000     0.667350000000     0.619400000000    -0.150533   
N213     N      0.035660000000     0.859650000000     0.624670000000    -0.151689   
N214     N      0.018300000000     0.923540000000     0.595580000000    -0.15207    
N215     N      0.973790000000     0.029140000000     0.475830000000    -0.150853   
N216     N      0.992190000000     0.592560000000     0.478060000000    -0.15155    
N217     N      0.624830000000     0.819450000000     0.109030000000    -0.0892246  
N218     N      0.598250000000     0.762970000000     0.129340000000    -0.080926   
N219     N      0.381880000000     0.606530000000     0.425450000000    -0.0953392  
N220     N      0.357500000000     0.635170000000     0.384590000000    -0.0899404  
N221     N      0.502700000000     0.718660000000     0.246080000000    -0.150874   
N222     N      0.471210000000     0.720840000000     0.285550000000    -0.150911   
N223     N      0.614740000000     0.767210000000     0.651660000000    -0.0929552  
N224     N      0.639120000000     0.704770000000     0.634940000000    -0.0972063  
N225     N      0.390410000000     0.956310000000     0.391630000000    -0.093661   
N226     N      0.350310000000     0.979520000000     0.379920000000    -0.0918921  
N227     N      0.409360000000     0.861910000000     0.418430000000    -0.152608   
N228     N      0.418300000000     0.790470000000     0.391440000000    -0.152503   
N229     N      0.428550000000     0.048800000000     0.433110000000    -0.151334   
N230     N      0.430720000000     0.087540000000     0.383220000000    -0.152366   
N231     N      0.486590000000     0.882550000000     0.504710000000    -0.150668   
N232     N      0.514330000000     0.847620000000     0.541790000000    -0.150993   
N233     N      0.657110000000     0.998750000000     0.596780000000    -0.0908149  
N234     N      0.624740000000     0.052320000000     0.596770000000    -0.0943217  
N235     N      0.562600000000     0.629010000000     0.660390000000    -0.153099   
N236     N      0.552070000000     0.680510000000     0.617910000000    -0.151436   
N237     N      0.597970000000     0.865320000000     0.629350000000    -0.151364   
N238     N      0.618890000000     0.914000000000     0.666250000000    -0.148774   
N239     N      0.380890000000     0.862420000000     0.846200000000    -0.0927157  
N240     N      0.400830000000     0.826070000000     0.804210000000    -0.0880578  
N241     N      0.507460000000     0.967800000000     0.764560000000    -0.15109    
N242     N      0.545810000000     0.985180000000     0.738870000000    -0.150267   
N243     N      0.574320000000     0.963430000000     0.118250000000    -0.0800517  
N244     N      0.585430000000     0.899940000000     0.149740000000    -0.0952847  
N245     N      0.568730000000     0.643540000000     0.156940000000    -0.151553   
N246     N      0.565920000000     0.591670000000     0.112940000000    -0.151775   
N247     N      0.514430000000     0.881480000000     0.083580000000    -0.152523   
N248     N      0.526390000000     0.829660000000     0.125060000000    -0.152288   
N249     N      0.364340000000     0.681750000000     0.866590000000    -0.0857908  
N250     N      0.395760000000     0.697080000000     0.902480000000    -0.0821421  
N251     N      0.395100000000     0.054900000000     0.853890000000    -0.154576   
N252     N      0.417280000000     0.993650000000     0.828560000000    -0.151734   
N253     N      0.469120000000     0.810870000000     0.848950000000    -0.151788   
N254     N      0.456810000000     0.744100000000     0.879660000000    -0.153215   
N255     N      0.489760000000     0.039480000000     0.991150000000    -0.15021    
N256     N      0.504940000000     0.583320000000     0.947710000000    -0.151285   
O1       O      0.410360000000     0.110670000000     0.873010000000    -0.255      
O2       O      0.398850000000     0.148170000000     0.966980000000    -0.227532   
O3       O      0.398720000000     0.186040000000     0.892950000000    -0.251759   
O4       O      0.447590000000     0.123720000000     0.933340000000    -0.243069   
O5       O      0.428930000000     0.070260000000     0.937790000000    -0.247903   
O6       O      0.428140000000     0.194730000000     0.913750000000    -0.241519   
O7       O      0.392970000000     0.070840000000     0.898990000000    -0.241998   
O8       O      0.374030000000     0.128660000000     0.940780000000    -0.226208   
O9       O      0.552320000000     0.535340000000     0.092420000000    -0.248179   
O10      O      0.554690000000     0.554180000000     0.021920000000    -0.250562   
O11      O      0.564790000000     0.426760000000     0.057340000000    -0.24985    
O12      O      0.604400000000     0.488980000000     0.061610000000    -0.227864   
O13      O      0.594910000000     0.486220000000     0.020070000000    -0.22314    
O14      O      0.544450000000     0.460500000000     0.083530000000    -0.247431   
O15      O      0.554790000000     0.028240000000     0.080820000000    -0.241501   
O16      O      0.539280000000     0.497380000000     0.016680000000    -0.249074   
O17      O      0.410180000000     0.439850000000     0.854800000000    -0.255706   
O18      O      0.432900000000     0.402380000000     0.764250000000    -0.226958   
O19      O      0.414250000000     0.351840000000     0.818960000000    -0.260735   
O20      O      0.466440000000     0.425560000000     0.814630000000    -0.243623   
O21      O      0.449730000000     0.479590000000     0.804300000000    -0.249095   
O22      O      0.441540000000     0.367350000000     0.842560000000    -0.242135   
O23      O      0.404080000000     0.477870000000     0.820690000000    -0.245782   
O24      O      0.400940000000     0.414890000000     0.775840000000    -0.225351   
O25      O      0.575800000000     0.568850000000     0.675820000000    -0.258507   
O26      O      0.587230000000     0.575230000000     0.756010000000    -0.227437   
O27      O      0.557100000000     0.491340000000     0.684720000000    -0.249781   
O28      O      0.534030000000     0.546400000000     0.740320000000    -0.243781   
O29      O      0.551540000000     0.494580000000     0.753250000000    -0.249659   
O30      O      0.584530000000     0.471830000000     0.706810000000    -0.244474   
O31      O      0.555510000000     0.602120000000     0.702340000000    -0.244556   
O32      O      0.607150000000     0.537690000000     0.731910000000    -0.222312   
O33      O      0.466880000000     0.457200000000     0.422870000000    -0.24296    
O34      O      0.478020000000     0.353850000000     0.472260000000    -0.248587   
O35      O      0.439340000000     0.393480000000     0.417430000000    -0.250166   
O36      O      0.424680000000     0.423940000000     0.488440000000    -0.231137   
O37      O      0.454420000000     0.428320000000     0.509030000000    -0.224613   
O38      O      0.434610000000     0.353350000000     0.450800000000    -0.245399   
O39      O      0.453680000000     0.486380000000     0.457700000000    -0.25302    
O40      O      0.495500000000     0.407610000000     0.463980000000    -0.248146   
O41      O      0.574200000000     0.352050000000     0.590660000000    -0.248027   
O42      O      0.576540000000     0.334390000000     0.534480000000    -0.244997   
O43      O      0.583810000000     0.219570000000     0.577650000000    -0.246121   
O44      O      0.627130000000     0.315610000000     0.561140000000    -0.234423   
O45      O      0.618270000000     0.259440000000     0.543520000000    -0.227485   
O46      O      0.582410000000     0.256360000000     0.613130000000    -0.252235   
O47      O      0.602130000000     0.331170000000     0.611090000000    -0.254885   
O48      O      0.557520000000     0.283550000000     0.545500000000    -0.246576   
O49      O      0.411060000000     0.214200000000     0.369580000000    -0.260322   
O50      O      0.418370000000     0.146310000000     0.285740000000    -0.228882   
O51      O      0.444630000000     0.141930000000     0.360480000000    -0.242785   
O52      O      0.463410000000     0.178700000000     0.317650000000    -0.242305   
O53      O      0.448330000000     0.233280000000     0.304910000000    -0.244862   
O54      O      0.412480000000     0.125250000000     0.352100000000    -0.260671   
O55      O      0.413170000000     0.254050000000     0.335670000000    -0.242487   
O56      O      0.392170000000     0.179690000000     0.301240000000    -0.23099    
O57      O      0.564020000000     0.274960000000     0.144540000000    -0.259624   
O58      O      0.580660000000     0.281270000000     0.219940000000    -0.229517   
O59      O      0.566820000000     0.176960000000     0.172680000000    -0.243992   
O60      O      0.525370000000     0.264500000000     0.215240000000    -0.241771   
O61      O      0.541590000000     0.211840000000     0.229390000000    -0.248251   
O62      O      0.535200000000     0.196460000000     0.163800000000    -0.251831   
O63      O      0.543390000000     0.308370000000     0.170530000000    -0.24583    
O64      O      0.594940000000     0.233640000000     0.197340000000    -0.228017   
O65      O      0.072550000000     0.581450000000     0.543340000000    -0.252775   
O66      O      0.057490000000     0.528600000000     0.494080000000    -0.24342    
O67      O      0.065580000000     0.470020000000     0.574450000000    -0.25257    
O68      O      0.115030000000     0.520170000000     0.523610000000    -0.23252    
O69      O      0.097190000000     0.485430000000     0.495120000000    -0.218473   
O70      O      0.082230000000     0.437350000000     0.543830000000    -0.256898   
O71      O      0.053810000000     0.040630000000     0.535330000000    -0.242905   
O72      O      0.038830000000     0.510080000000     0.528060000000    -0.249404   
O73      O      0.895650000000     0.199230000000     0.412370000000    -0.253647   
O74      O      0.910190000000     0.097990000000     0.449520000000    -0.243641   
O75      O      0.898290000000     0.097730000000     0.361440000000    -0.248497   
O76      O      0.856300000000     0.119480000000     0.402290000000    -0.233867   
O77      O      0.867340000000     0.135140000000     0.441820000000    -0.218434   
O78      O      0.892100000000     0.055140000000     0.393140000000    -0.245669   
O79      O      0.905920000000     0.176340000000     0.374080000000    -0.246585   
O80      O      0.932370000000     0.116680000000     0.419340000000    -0.254234   
O81      O      0.965530000000     0.456260000000     0.947910000000    -0.243085   
O82      O      0.970800000000     0.343360000000     0.991800000000    -0.250977   
O83      O      0.960710000000     0.362980000000     0.926970000000    -0.254488   
O84      O      0.916490000000     0.379800000000     0.992230000000    -0.220846   
O85      O      0.933910000000     0.430120000000     0.007610000000    -0.226399   
O86      O      0.932660000000     0.338510000000     0.945190000000    -0.246499   
O87      O      0.932990000000     0.443410000000     0.939070000000    -0.261612   
O88      O      0.984500000000     0.402430000000     0.991610000000    -0.243711   
O89      O      0.069090000000     0.301130000000     0.126920000000    -0.250503   
O90      O      0.069880000000     0.328990000000     0.054700000000    -0.250513   
O91      O      0.069430000000     0.222100000000     0.108210000000    -0.246656   
O92      O      0.124930000000     0.288810000000     0.088080000000    -0.236183   
O93      O      0.112760000000     0.277480000000     0.048310000000    -0.221649   
O94      O      0.098880000000     0.209180000000     0.088680000000    -0.254297   
O95      O      0.095060000000     0.337560000000     0.113750000000    -0.251972   
O96      O      0.057210000000     0.269320000000     0.052480000000    -0.249831   
O97      O      0.047270000000     0.578470000000     0.218910000000    -0.250017   
O98      O      0.049160000000     0.544960000000     0.276360000000    -0.221592   
O99      O      0.045650000000     0.436800000000     0.220810000000    -0.2498     
O100     O      0.004700000000     0.506620000000     0.232540000000    -0.248311   
O101     O      0.019480000000     0.472730000000     0.264230000000    -0.245907   
O102     O      0.072250000000     0.472810000000     0.209100000000    -0.247453   
O103     O      0.036180000000     0.537300000000     0.188770000000    -0.249838   
O104     O      0.075670000000     0.510770000000     0.262270000000    -0.223081   
O105     O      0.894380000000     0.359240000000     0.318850000000    -0.248366   
O106     O      0.908910000000     0.466500000000     0.288320000000    -0.243818   
O107     O      0.878010000000     0.501450000000     0.333000000000    -0.24604    
O108     O      0.847360000000     0.431050000000     0.309360000000    -0.234538   
O109     O      0.868240000000     0.418090000000     0.276520000000    -0.221627   
O110     O      0.881550000000     0.459770000000     0.365820000000    -0.250726   
O111     O      0.882250000000     0.381300000000     0.356550000000    -0.24595    
O112     O      0.924280000000     0.433620000000     0.319970000000    -0.252319   
O113     O      0.967110000000     0.210360000000     0.840770000000    -0.247957   
O114     O      0.931500000000     0.120600000000     0.783810000000    -0.225164   
O115     O      0.970730000000     0.113010000000     0.856820000000    -0.253063   
O116     O      0.988770000000     0.143170000000     0.793480000000    -0.250027   
O117     O      0.970190000000     0.195280000000     0.783990000000    -0.246603   
O118     O      0.958750000000     0.075990000000     0.824880000000    -0.251183   
O119     O      0.939520000000     0.182450000000     0.857960000000    -0.248803   
O120     O      0.917410000000     0.163210000000     0.810670000000    -0.225262   
O121     O      0.049410000000     0.201170000000     0.624890000000    -0.253034   
O122     O      0.056510000000     0.187480000000     0.692900000000    -0.249898   
O123     O      0.087040000000     0.274700000000     0.623950000000    -0.257527   
O124     O      0.105510000000     0.195110000000     0.673450000000    -0.225073   
O125     O      0.099840000000     0.252390000000     0.691920000000    -0.226984   
O126     O      0.066820000000     0.303160000000     0.653050000000    -0.244035   
O127     O      0.080950000000     0.177260000000     0.625530000000    -0.256947   
O128     O      0.039870000000     0.242240000000     0.684140000000    -0.243023   
O129     O      0.835660000000     0.457700000000     0.835940000000    -0.262774   
O130     O      0.804840000000     0.334560000000     0.799000000000    -0.250305   
O131     O      0.827420000000     0.373330000000     0.863090000000    -0.256072   
O132     O      0.855440000000     0.398250000000     0.788710000000    -0.226435   
O133     O      0.827630000000     0.422570000000     0.770280000000    -0.227675   
O134     O      0.845720000000     0.340650000000     0.833930000000    -0.246907   
O135     O      0.801980000000     0.449710000000     0.836980000000    -0.241487   
O136     O      0.785040000000     0.385910000000     0.805960000000    -0.242676   
O137     O      0.705900000000     0.322960000000     0.660910000000    -0.24761    
O138     O      0.711970000000     0.309780000000     0.723690000000    -0.248116   
O139     O      0.715010000000     0.241260000000     0.645710000000    -0.252955   
O140     O      0.663210000000     0.234360000000     0.688970000000    -0.22567    
O141     O      0.678410000000     0.238820000000     0.727540000000    -0.223419   
O142     O      0.709380000000     0.195020000000     0.674990000000    -0.250544   
O143     O      0.673360000000     0.313350000000     0.671400000000    -0.252982   
O144     O      0.732010000000     0.259280000000     0.715310000000    -0.24788    
O145     O      0.792890000000     0.404420000000     0.404880000000    -0.254408   
O146     O      0.754950000000     0.357500000000     0.478860000000    -0.225712   
O147     O      0.756610000000     0.362400000000     0.386830000000    -0.246985   
O148     O      0.724510000000     0.395940000000     0.435850000000    -0.246943   
O149     O      0.744100000000     0.448550000000     0.437420000000    -0.247723   
O150     O      0.761460000000     0.315320000000     0.415840000000    -0.253138   
O151     O      0.787450000000     0.441470000000     0.439740000000    -0.245819   
O152     O      0.787370000000     0.353710000000     0.466850000000    -0.231804   
O153     O      0.679780000000     0.472620000000     0.577600000000    -0.249279   
O154     O      0.660420000000     0.480140000000     0.518540000000    -0.24706    
O155     O      0.669590000000     0.557300000000     0.599440000000    -0.253365   
O156     O      0.618390000000     0.524770000000     0.570740000000    -0.224204   
O157     O      0.626270000000     0.551620000000     0.532820000000    -0.223973   
O158     O      0.670060000000     0.592560000000     0.563260000000    -0.245903   
O159     O      0.646680000000     0.463260000000     0.585220000000    -0.245039   
O160     O      0.681470000000     0.530710000000     0.520910000000    -0.244321   
O161     O      0.825500000000     0.221550000000     0.945310000000    -0.250574   
O162     O      0.843450000000     0.108960000000     0.991320000000    -0.223562   
O163     O      0.807090000000     0.094300000000     0.932420000000    -0.245877   
O164     O      0.788170000000     0.161100000000     0.958930000000    -0.243135   
O165     O      0.805690000000     0.164920000000     0.996010000000    -0.245298   
O166     O      0.840520000000     0.097220000000     0.925440000000    -0.252942   
O167     O      0.841120000000     0.184940000000     0.915870000000    -0.258915   
O168     O      0.859680000000     0.163040000000     0.980090000000    -0.226864   
O169     O      0.662200000000     0.257800000000     0.093500000000    -0.247662   
O170     O      0.702280000000     0.233250000000     0.022280000000    -0.245001   
O171     O      0.700030000000     0.297990000000     0.101930000000    -0.244575   
O172     O      0.656350000000     0.314440000000     0.038560000000    -0.234842   
O173     O      0.685310000000     0.319940000000     0.016450000000    -0.219798   
O174     O      0.704020000000     0.341010000000     0.070000000000    -0.250914   
O175     O      0.661740000000     0.220910000000     0.057930000000    -0.248505   
O176     O      0.719910000000     0.237800000000     0.059070000000    -0.250216   
O177     O      0.694250000000     0.487120000000     0.155690000000    -0.244744   
O178     O      0.666940000000     0.477060000000     0.237080000000    -0.222031   
O179     O      0.663590000000     0.543010000000     0.157200000000    -0.254643   
O180     O      0.717880000000     0.532390000000     0.204660000000    -0.250852   
O181     O      0.696420000000     0.554280000000     0.234740000000    -0.245578   
O182     O      0.623170000000     0.114970000000     0.158480000000    -0.247576   
O183     O      0.690120000000     0.444770000000     0.187990000000    -0.248517   
O184     O      0.643330000000     0.498230000000     0.209560000000    -0.234372   
O185     O      0.792020000000     0.095200000000     0.274240000000    -0.24936    
O186     O      0.780220000000     0.208880000000     0.233930000000    -0.221219   
O187     O      0.759520000000     0.225990000000     0.288050000000    -0.248756   
O188     O      0.739020000000     0.131890000000     0.270130000000    -0.250566   
O189     O      0.757500000000     0.126090000000     0.234050000000    -0.246043   
O190     O      0.762440000000     0.178960000000     0.317490000000    -0.246546   
O191     O      0.815920000000     0.591990000000     0.367900000000    -0.248001   
O192     O      0.808150000000     0.190420000000     0.254940000000    -0.23169    
O193     O      0.266500000000     0.213650000000     0.818230000000    -0.242389   
O194     O      0.249220000000     0.163190000000     0.773080000000    -0.244079   
O195     O      0.287430000000     0.131920000000     0.832380000000    -0.253975   
O196     O      0.319450000000     0.171190000000     0.763040000000    -0.219981   
O197     O      0.292710000000     0.201220000000     0.745660000000    -0.225037   
O198     O      0.310440000000     0.112040000000     0.803500000000    -0.242735   
O199     O      0.298740000000     0.228590000000     0.809300000000    -0.261674   
O200     O      0.267880000000     0.110290000000     0.766220000000    -0.251744   
O201     O      0.201230000000     0.492780000000     0.678900000000    -0.242265   
O202     O      0.180150000000     0.527920000000     0.753700000000    -0.225475   
O203     O      0.176690000000     0.564410000000     0.659070000000    -0.255255   
O204     O      0.209110000000     0.602010000000     0.718460000000    -0.248778   
O205     O      0.222960000000     0.543240000000     0.716070000000    -0.243845   
O206     O      0.134990000000     0.081780000000     0.656040000000    -0.244084   
O207     O      0.170710000000     0.479400000000     0.695680000000    -0.252471   
O208     O      0.152540000000     0.549860000000     0.733460000000    -0.222611   
O209     O      0.282770000000     0.447250000000     0.907350000000    -0.254829   
O210     O      0.298300000000     0.356580000000     0.982720000000    -0.226725   
O211     O      0.303300000000     0.355610000000     0.911720000000    -0.257568   
O212     O      0.272550000000     0.449640000000     0.976510000000    -0.251585   
O213     O      0.251470000000     0.406850000000     0.958340000000    -0.243245   
O214     O      0.270590000000     0.346230000000     0.921410000000    -0.242133   
O215     O      0.312160000000     0.456080000000     0.928220000000    -0.246418   
O216     O      0.321870000000     0.399970000000     0.971800000000    -0.219602   
O217     O      0.162160000000     0.551760000000     0.116570000000    -0.242744   
O218     O      0.137350000000     0.548040000000     0.037560000000    -0.224917   
O219     O      0.153650000000     0.480800000000     0.118540000000    -0.242498   
O220     O      0.172700000000     0.471570000000     0.039410000000    -0.245147   
O221     O      0.194290000000     0.510240000000     0.060370000000    -0.24986    
O222     O      0.149520000000     0.443050000000     0.083750000000    -0.244024   
O223     O      0.171710000000     0.582550000000     0.080460000000    -0.243434   
O224     O      0.118240000000     0.520350000000     0.067820000000    -0.23133    
O225     O      0.269630000000     0.120090000000     0.410770000000    -0.243529   
O226     O      0.271400000000     0.228790000000     0.458390000000    -0.251387   
O227     O      0.298260000000     0.181940000000     0.397690000000    -0.253223   
O228     O      0.317860000000     0.150740000000     0.472800000000    -0.226736   
O229     O      0.287440000000     0.146110000000     0.491770000000    -0.22512    
O230     O      0.317150000000     0.207280000000     0.429340000000    -0.249381   
O231     O      0.288780000000     0.090450000000     0.440500000000    -0.257223   
O232     O      0.249500000000     0.181940000000     0.448300000000    -0.247989   
O233     O      0.142720000000     0.255050000000     0.586750000000    -0.253104   
O234     O      0.174940000000     0.264220000000     0.522650000000    -0.254031   
O235     O      0.184350000000     0.356540000000     0.583340000000    -0.244548   
O236     O      0.127370000000     0.303980000000     0.538660000000    -0.235464   
O237     O      0.145870000000     0.356670000000     0.530970000000    -0.231499   
O238     O      0.154060000000     0.343930000000     0.600920000000    -0.256995   
O239     O      0.176010000000     0.244710000000     0.582020000000    -0.252204   
O240     O      0.196730000000     0.309440000000     0.536450000000    -0.241477   
O241     O      0.193260000000     0.331580000000     0.186030000000    -0.251155   
O242     O      0.223510000000     0.307400000000     0.226440000000    -0.243832   
O243     O      0.227860000000     0.201380000000     0.179630000000    -0.250697   
O244     O      0.175600000000     0.231290000000     0.199270000000    -0.241872   
O245     O      0.198890000000     0.226290000000     0.230350000000    -0.223116   
O246     O      0.223850000000     0.242250000000     0.146390000000    -0.243185   
O247     O      0.190010000000     0.293370000000     0.151370000000    -0.247141   
O248     O      0.246250000000     0.288380000000     0.196960000000    -0.249521   
O249     O      0.329740000000     0.435120000000     0.355750000000    -0.257743   
O250     O      0.321070000000     0.384280000000     0.265790000000    -0.246004   
O251     O      0.321360000000     0.333300000000     0.319560000000    -0.250578   
O252     O      0.369740000000     0.384130000000     0.298620000000    -0.230257   
O253     O      0.360890000000     0.445210000000     0.291270000000    -0.22837    
O254     O      0.341060000000     0.358690000000     0.350500000000    -0.254086   
O255     O      0.317900000000     0.468500000000     0.321900000000    -0.245304   
O256     O      0.297290000000     0.404850000000     0.293530000000    -0.246796   
O257     O      0.426350000000     0.580740000000     0.928170000000    -0.244227   
O258     O      0.445980000000     0.660200000000     0.979690000000    -0.225219   
O259     O      0.458220000000     0.676190000000     0.888820000000    -0.24702    
O260     O      0.485040000000     0.640700000000     0.942070000000    -0.248096   
O261     O      0.469800000000     0.583830000000     0.936050000000    -0.247443   
O262     O      0.447020000000     0.715500000000     0.920070000000    -0.248498   
O263     O      0.424150000000     0.619790000000     0.893730000000    -0.248047   
O264     O      0.416450000000     0.664740000000     0.958870000000    -0.229965   
O265     O      0.522910000000     0.047870000000     0.074260000000    -0.24812    
O266     O      0.520870000000     0.042100000000     0.015110000000    -0.246016   
O267     O      0.533110000000     0.917190000000     0.051860000000    -0.253915   
O268     O      0.572900000000     0.983110000000     0.042470000000    -0.221792   
O269     O      0.555450000000     0.979150000000     0.005470000000    -0.222968   
O270     O      0.514120000000     0.950470000000     0.079830000000    -0.253734   
O271     O      0.581010000000     0.560150000000     0.076330000000    -0.247853   
O272     O      0.501950000000     0.988730000000     0.018730000000    -0.247787   
O273     O      0.441780000000     0.971330000000     0.797770000000    -0.249448   
O274     O      0.448810000000     0.857480000000     0.752260000000    -0.220923   
O275     O      0.467260000000     0.835070000000     0.805450000000    -0.247238   
O276     O      0.490360000000     0.928250000000     0.795890000000    -0.250335   
O277     O      0.474310000000     0.941000000000     0.758720000000    -0.246621   
O278     O      0.457640000000     0.874280000000     0.837560000000    -0.249864   
O279     O      0.426720000000     0.927300000000     0.822990000000    -0.251758   
O280     O      0.421190000000     0.888360000000     0.766050000000    -0.231818   
O281     O      0.596420000000     0.057540000000     0.658240000000    -0.250972   
O282     O      0.618500000000     0.055900000000     0.743200000000    -0.219297   
O283     O      0.604860000000     0.952090000000     0.700370000000    -0.250736   
O284     O      0.564480000000     0.013060000000     0.703660000000    -0.251087   
O285     O      0.581210000000     0.000920000000     0.740510000000    -0.240782   
O286     O      0.619650000000     0.983220000000     0.667390000000    -0.249866   
O287     O      0.593990000000     0.096020000000     0.692870000000    -0.250304   
O288     O      0.640480000000     0.033740000000     0.713900000000    -0.228986   
O289     O      0.446500000000     0.002080000000     0.458790000000    -0.243521   
O290     O      0.451800000000     0.882990000000     0.491550000000    -0.251727   
O291     O      0.409020000000     0.885190000000     0.462160000000    -0.243622   
O292     O      0.398680000000     0.934860000000     0.508390000000    -0.222632   
O293     O      0.423540000000     0.971600000000     0.524210000000    -0.226878   
O294     O      0.429450000000     0.914730000000     0.433620000000    -0.250723   
O295     O      0.412950000000     0.994910000000     0.454070000000    -0.256068   
O296     O      0.467830000000     0.939760000000     0.493840000000    -0.243277   
O297     O      0.575760000000     0.812790000000     0.619110000000    -0.249186   
O298     O      0.548030000000     0.846390000000     0.559140000000    -0.250711   
O299     O      0.569400000000     0.713680000000     0.583700000000    -0.250844   
O300     O      0.602490000000     0.767870000000     0.555140000000    -0.230429   
O301     O      0.576710000000     0.769100000000     0.527040000000    -0.224996   
O302     O      0.549130000000     0.748330000000     0.609490000000    -0.243932   
O303     O      0.591970000000     0.841690000000     0.586350000000    -0.249314   
O304     O      0.531790000000     0.790150000000     0.554990000000    -0.247715   
O305     O      0.430540000000     0.757050000000     0.353960000000    -0.249813   
O306     O      0.399210000000     0.641300000000     0.319480000000    -0.228557   
O307     O      0.441200000000     0.619630000000     0.349100000000    -0.247894   
O308     O      0.460880000000     0.701300000000     0.328080000000    -0.246928   
O309     O      0.437080000000     0.704570000000     0.297220000000    -0.247773   
O310     O      0.430300000000     0.649100000000     0.384990000000    -0.257301   
O311     O      0.411700000000     0.723780000000     0.382240000000    -0.258497   
O312     O      0.388210000000     0.700920000000     0.327320000000    -0.237033   
O313     O      0.547020000000     0.778390000000     0.141860000000    -0.252502   
O314     O      0.564160000000     0.816140000000     0.210650000000    -0.228205   
O315     O      0.573270000000     0.711300000000     0.164320000000    -0.243877   
O316     O      0.512860000000     0.738700000000     0.203600000000    -0.24512    
O317     O      0.536630000000     0.736660000000     0.234570000000    -0.248646   
O318     O      0.545400000000     0.683340000000     0.180350000000    -0.2502     
O319     O      0.526470000000     0.809100000000     0.169440000000    -0.247009   
O320     O      0.584050000000     0.764110000000     0.210080000000    -0.226331   
O321     O      0.021860000000     0.062510000000     0.537480000000    -0.250525   
O322     O      0.009230000000     0.017760000000     0.482490000000    -0.249161   
O323     O      0.032070000000     0.976700000000     0.571700000000    -0.25289    
O324     O      0.059150000000     0.979650000000     0.498470000000    -0.223298   
O325     O      0.036100000000     0.932610000000     0.496710000000    -0.226294   
O326     O      0.010860000000     0.937020000000     0.550990000000    -0.245556   
O327     O      0.091940000000     0.550660000000     0.572270000000    -0.253693   
O328     O      0.987980000000     0.001870000000     0.514570000000    -0.245949   
O329     O      0.952450000000     0.689570000000     0.404430000000    -0.243836   
O330     O      0.958180000000     0.616850000000     0.480580000000    -0.245997   
O331     O      0.922030000000     0.597040000000     0.441090000000    -0.250005   
O332     O      0.906590000000     0.686460000000     0.465110000000    -0.233905   
O333     O      0.933670000000     0.698210000000     0.489840000000    -0.220643   
O334     O      0.919020000000     0.639880000000     0.408890000000    -0.247997   
O335     O      0.954060000000     0.729670000000     0.438350000000    -0.249041   
O336     O      0.977000000000     0.634640000000     0.446670000000    -0.251924   
O337     O      0.952370000000     0.965860000000     0.942230000000    -0.245164   
O338     O      0.945580000000     0.871420000000     0.997700000000    -0.247467   
O339     O      0.944120000000     0.832190000000     0.942470000000    -0.251654   
O340     O      0.897710000000     0.894770000000     0.967450000000    -0.232884   
O341     O      0.912480000000     0.950470000000     0.977910000000    -0.228784   
O342     O      0.920310000000     0.859860000000     0.917710000000    -0.24832    
O343     O      0.942180000000     0.928700000000     0.909300000000    -0.249004   
O344     O      0.970760000000     0.896850000000     0.974130000000    -0.247249   
O345     O      0.048330000000     0.811550000000     0.110380000000    -0.24897    
O346     O      0.040770000000     0.790590000000     0.043570000000    -0.249272   
O347     O      0.046350000000     0.728030000000     0.129450000000    -0.257508   
O348     O      0.087960000000     0.723800000000     0.076160000000    -0.233714   
O349     O      0.065440000000     0.709850000000     0.045240000000    -0.222967   
O350     O      0.035030000000     0.688210000000     0.098660000000    -0.248494   
O351     O      0.079440000000     0.801720000000     0.094320000000    -0.250072   
O352     O      0.015830000000     0.763680000000     0.066720000000    -0.246341   
O353     O      0.086110000000     0.064060000000     0.189190000000    -0.245134   
O354     O      0.135060000000     0.046150000000     0.230860000000    -0.228985   
O355     O      0.082610000000     0.957840000000     0.190070000000    -0.252333   
O356     O      0.081060000000     0.029100000000     0.240670000000    -0.241134   
O357     O      0.096960000000     0.973180000000     0.248650000000    -0.246578   
O358     O      0.114710000000     0.949220000000     0.177430000000    -0.251232   
O359     O      0.114490000000     0.050690000000     0.167320000000    -0.257536   
O360     O      0.144480000000     0.988780000000     0.215190000000    -0.223781   
O361     O      0.985580000000     0.877410000000     0.355680000000    -0.246211   
O362     O      0.004320000000     0.970000000000     0.310600000000    -0.24656    
O363     O      0.951890000000     0.926460000000     0.338720000000    -0.250539   
O364     O      0.960940000000     0.880070000000     0.273810000000    -0.2252     
O365     O      0.993220000000     0.892620000000     0.264030000000    -0.227013   
O366     O      0.958840000000     0.967110000000     0.306250000000    -0.245726   
O367     O      0.983230000000     0.836530000000     0.322210000000    -0.249026   
O368     O      0.020860000000     0.914830000000     0.318240000000    -0.247555   
O369     O      0.943240000000     0.669210000000     0.866750000000    -0.252959   
O370     O      0.930760000000     0.612510000000     0.777640000000    -0.224616   
O371     O      0.963760000000     0.593710000000     0.849130000000    -0.243098   
O372     O      0.976770000000     0.640230000000     0.798340000000    -0.246064   
O373     O      0.961220000000     0.697440000000     0.800860000000    -0.251979   
O374     O      0.932490000000     0.573960000000     0.838870000000    -0.256395   
O375     O      0.920770000000     0.696030000000     0.839720000000    -0.242955   
O376     O      0.906240000000     0.637030000000     0.802580000000    -0.21959    
O377     O      0.052940000000     0.725580000000     0.631860000000    -0.242821   
O378     O      0.041870000000     0.711620000000     0.703400000000    -0.250164   
O379     O      0.034820000000     0.793870000000     0.639100000000    -0.241314   
O380     O      0.095660000000     0.776770000000     0.674630000000    -0.235889   
O381     O      0.078880000000     0.790340000000     0.711110000000    -0.224172   
O382     O      0.056340000000     0.834060000000     0.658900000000    -0.250932   
O383     O      0.075250000000     0.700250000000     0.659730000000    -0.246531   
O384     O      0.026690000000     0.769170000000     0.704910000000    -0.24856    
O385     O      0.834420000000     0.959950000000     0.828100000000    -0.255658   
O386     O      0.796190000000     0.844570000000     0.792610000000    -0.249494   
O387     O      0.826280000000     0.875680000000     0.853240000000    -0.251877   
O388     O      0.851080000000     0.899500000000     0.780010000000    -0.229727   
O389     O      0.824510000000     0.929510000000     0.762430000000    -0.227974   
O390     O      0.835450000000     0.836520000000     0.820820000000    -0.244988   
O391     O      0.801010000000     0.953240000000     0.834620000000    -0.242536   
O392     O      0.780680000000     0.901860000000     0.795120000000    -0.242628   
O393     O      0.711000000000     0.837660000000     0.649250000000    -0.248118   
O394     O      0.706520000000     0.835010000000     0.710540000000    -0.249201   
O395     O      0.698840000000     0.751290000000     0.634380000000    -0.258885   
O396     O      0.656350000000     0.811490000000     0.688270000000    -0.23054    
O397     O      0.665100000000     0.753960000000     0.703930000000    -0.231268   
O398     O      0.698970000000     0.715520000000     0.670360000000    -0.247123   
O399     O      0.677610000000     0.832610000000     0.641390000000    -0.25458    
O400     O      0.723850000000     0.780100000000     0.705580000000    -0.247383   
O401     O      0.837050000000     0.954860000000     0.344250000000    -0.24922    
O402     O      0.860490000000     0.921370000000     0.430020000000    -0.220973   
O403     O      0.824080000000     0.880840000000     0.358660000000    -0.247455   
O404     O      0.798950000000     0.941380000000     0.403920000000    -0.251696   
O405     O      0.821640000000     0.975500000000     0.426500000000    -0.241551   
O406     O      0.827530000000     0.859820000000     0.399470000000    -0.251448   
O407     O      0.844940000000     0.998380000000     0.374610000000    -0.248236   
O408     O      0.874260000000     0.914130000000     0.390860000000    -0.245558   
O409     O      0.721400000000     0.976760000000     0.555070000000    -0.248991   
O410     O      0.721840000000     0.000990000000     0.490070000000    -0.250542   
O411     O      0.709390000000     0.057610000000     0.577270000000    -0.259407   
O412     O      0.669500000000     0.037300000000     0.521350000000    -0.22898    
O413     O      0.688920000000     0.074170000000     0.495970000000    -0.223494   
O414     O      0.716850000000     0.102420000000     0.547710000000    -0.247432   
O415     O      0.688270000000     0.974120000000     0.545400000000    -0.244336   
O416     O      0.744080000000     0.037290000000     0.511950000000    -0.246008   
O417     O      0.817610000000     0.728820000000     0.938720000000    -0.247091   
O418     O      0.831500000000     0.626920000000     0.988600000000    -0.219851   
O419     O      0.795740000000     0.599410000000     0.927570000000    -0.248299   
O420     O      0.787660000000     0.657800000000     0.988740000000    -0.247715   
O421     O      0.775630000000     0.681910000000     0.951640000000    -0.248481   
O422     O      0.829630000000     0.601760000000     0.927330000000    -0.250385   
O423     O      0.820730000000     0.686750000000     0.906070000000    -0.258306   
O424     O      0.844080000000     0.682760000000     0.974150000000    -0.228268   
O425     O      0.667160000000     0.735600000000     0.103930000000    -0.249159   
O426     O      0.707400000000     0.738260000000     0.055740000000    -0.251611   
O427     O      0.680000000000     0.812900000000     0.093820000000    -0.247127   
O428     O      0.632810000000     0.773200000000     0.052240000000    -0.236196   
O429     O      0.649480000000     0.749770000000     0.018060000000    -0.21884    
O430     O      0.669620000000     0.838250000000     0.056290000000    -0.24969    
O431     O      0.664180000000     0.693710000000     0.071160000000    -0.250215   
O432     O      0.695220000000     0.763770000000     0.019180000000    -0.244897   
O433     O      0.641100000000     0.004530000000     0.121710000000    -0.248101   
O434     O      0.615510000000     0.015860000000     0.202620000000    -0.220912   
O435     O      0.622570000000     0.080190000000     0.121920000000    -0.246093   
O436     O      0.670630000000     0.066730000000     0.166030000000    -0.250818   
O437     O      0.652280000000     0.071530000000     0.202360000000    -0.241249   
O438     O      0.667080000000     0.584260000000     0.190230000000    -0.248984   
O439     O      0.650930000000     0.977700000000     0.159040000000    -0.253986   
O440     O      0.596140000000     0.025170000000     0.167800000000    -0.239469   
O441     O      0.823500000000     0.552350000000     0.335110000000    -0.245945   
O442     O      0.841620000000     0.632980000000     0.284680000000    -0.219469   
O443     O      0.806340000000     0.693950000000     0.317530000000    -0.251154   
O444     O      0.779050000000     0.612970000000     0.312770000000    -0.249886   
O445     O      0.800680000000     0.591240000000     0.282770000000    -0.240453   
O446     O      0.810410000000     0.672980000000     0.358220000000    -0.247493   
O447     O      0.799730000000     0.137300000000     0.305580000000    -0.252961   
O448     O      0.855380000000     0.634950000000     0.324100000000    -0.247738   
O449     O      0.307450000000     0.706740000000     0.827720000000    -0.249606   
O450     O      0.298280000000     0.669770000000     0.771060000000    -0.247347   
O451     O      0.301470000000     0.604580000000     0.828450000000    -0.251238   
O452     O      0.358990000000     0.613190000000     0.802550000000    -0.228043   
O453     O      0.355740000000     0.662400000000     0.774780000000    -0.223118   
O454     O      0.331320000000     0.614870000000     0.847810000000    -0.253917   
O455     O      0.340280000000     0.714970000000     0.818650000000    -0.25341    
O456     O      0.310760000000     0.609910000000     0.767660000000    -0.249227   
O457     O      0.170130000000     0.967920000000     0.662860000000    -0.243212   
O458     O      0.131720000000     0.987870000000     0.716580000000    -0.22579    
O459     O      0.167450000000     0.068530000000     0.647160000000    -0.253207   
O460     O      0.165820000000     0.073300000000     0.715730000000    -0.250343   
O461     O      0.184160000000     0.020010000000     0.708540000000    -0.24306    
O462     O      0.165750000000     0.606330000000     0.688860000000    -0.244056   
O463     O      0.138220000000     0.977400000000     0.649740000000    -0.257603   
O464     O      0.115320000000     0.038620000000     0.699960000000    -0.222002   
O465     O      0.309780000000     0.977980000000     0.913710000000    -0.251469   
O466     O      0.361110000000     0.902990000000     0.959120000000    -0.224096   
O467     O      0.346080000000     0.863420000000     0.906410000000    -0.249691   
O468     O      0.319480000000     0.950700000000     0.973260000000    -0.244617   
O469     O      0.300230000000     0.902470000000     0.958130000000    -0.241543   
O470     O      0.312730000000     0.860260000000     0.913880000000    -0.244971   
O471     O      0.332780000000     0.955640000000     0.885780000000    -0.254696   
O472     O      0.364810000000     0.956940000000     0.935790000000    -0.222241   
O473     O      0.221050000000     0.050140000000     0.099010000000    -0.242896   
O474     O      0.206330000000     0.040570000000     0.009760000000    -0.225246   
O475     O      0.185130000000     0.004720000000     0.097080000000    -0.248695   
O476     O      0.225180000000     0.958050000000     0.040620000000    -0.246496   
O477     O      0.245520000000     0.004370000000     0.055820000000    -0.250004   
O478     O      0.182790000000     0.962720000000     0.064330000000    -0.24613    
O479     O      0.215570000000     0.090650000000     0.065880000000    -0.249308   
O480     O      0.177850000000     0.050020000000     0.032230000000    -0.227044   
O481     O      0.292110000000     0.620990000000     0.401640000000    -0.241797   
O482     O      0.281480000000     0.723480000000     0.452760000000    -0.250917   
O483     O      0.315970000000     0.685430000000     0.393820000000    -0.246772   
O484     O      0.335340000000     0.655440000000     0.465800000000    -0.232891   
O485     O      0.305900000000     0.648100000000     0.486750000000    -0.224801   
O486     O      0.327640000000     0.720840000000     0.426820000000    -0.248511   
O487     O      0.306430000000     0.591290000000     0.435490000000    -0.254719   
O488     O      0.264470000000     0.670090000000     0.442070000000    -0.249821   
O489     O      0.156650000000     0.745580000000     0.590890000000    -0.261721   
O490     O      0.180160000000     0.730300000000     0.509670000000    -0.245484   
O491     O      0.179340000000     0.822110000000     0.570660000000    -0.244362   
O492     O      0.124780000000     0.748530000000     0.534820000000    -0.236323   
O493     O      0.138520000000     0.788640000000     0.505840000000    -0.22323    
O494     O      0.148230000000     0.836260000000     0.556090000000    -0.249495   
O495     O      0.167440000000     0.701850000000     0.562310000000    -0.249194   
O496     O      0.196340000000     0.783450000000     0.522900000000    -0.245804   
O497     O      0.173580000000     0.859900000000     0.180410000000    -0.245362   
O498     O      0.195340000000     0.812510000000     0.233050000000    -0.244229   
O499     O      0.181440000000     0.714120000000     0.188950000000    -0.253274   
O500     O      0.139680000000     0.792100000000     0.195220000000    -0.234249   
O501     O      0.155710000000     0.762500000000     0.227700000000    -0.218948   
O502     O      0.191960000000     0.745930000000     0.153780000000    -0.24963    
O503     O      0.170880000000     0.818670000000     0.147180000000    -0.255583   
O504     O      0.216370000000     0.801230000000     0.200010000000    -0.251077   
O505     O      0.308810000000     0.943400000000     0.357510000000    -0.24298    
O506     O      0.295350000000     0.890750000000     0.269680000000    -0.246801   
O507     O      0.314600000000     0.840670000000     0.318110000000    -0.24821    
O508     O      0.347990000000     0.914990000000     0.293730000000    -0.230304   
O509     O      0.329450000000     0.967410000000     0.286010000000    -0.227474   
O510     O      0.327530000000     0.876720000000     0.350090000000    -0.243128   
O511     O      0.291360000000     0.973620000000     0.326380000000    -0.244382   
O512     O      0.274330000000     0.898200000000     0.303330000000    -0.248588   


