data_structure

_audit_creation_method RASPA-1.0
_audit_creation_date 2023-5-22
_audit_author_name 'Poobodin Mano'

_cell_length_a    30.4854
_cell_length_b    32.5491
_cell_length_c    20.1202
_cell_angle_alpha 90.0003
_cell_angle_beta  89.9996
_cell_angle_gamma 120.001
_cell_volume      17289.8

_symmetry_cell_setting          triclinic
_symmetry_space_group_name_Hall 'P 1'
_symmetry_space_group_name_H-M  'P 1'
_symmetry_Int_Tables_number     1

_symmetry_equiv_pos_as_xyz 'x,y,z'

loop_
_atom_site_label
_atom_site_type_symbol
_atom_site_fract_x
_atom_site_fract_y
_atom_site_fract_z
_atom_site_charge
C1       C      0.943140000000     0.690760000000     0.134010000000     0.340362   
C2       C      0.061840000000     0.629700000000     0.146310000000     0.259295   
C3       C      0.124560000000     0.784980000000     0.120580000000     0.339095   
C4       C      0.013860000000     0.697340000000     0.317280000000     0.34155    
C5       C      0.093370000000     0.301220000000     0.896720000000     0.265974   
C6       C      0.074430000000     0.150290000000     0.929470000000     0.339684   
C7       C      0.044260000000     0.219880000000     0.110890000000     0.336741   
C8       C      0.930530000000     0.175500000000     0.940400000000     0.342416   
C9       C      0.983490000000     0.299810000000     0.531360000000     0.26412    
C10      C      0.879520000000     0.134830000000     0.482060000000     0.34239    
C11      C      0.035320000000     0.225790000000     0.375710000000     0.342206   
C12      C      0.031230000000     0.189150000000     0.602790000000     0.341523   
C13      C      0.839510000000     0.568040000000     0.726300000000     0.251179   
C14      C      0.982990000000     0.720950000000     0.693690000000     0.342229   
C15      C      0.896340000000     0.664790000000     0.524060000000     0.339034   
C16      C      0.803000000000     0.684640000000     0.705290000000     0.339663   
C17      C      0.304300000000     0.213870000000     0.861980000000     0.342836   
C18      C      0.335210000000     0.374920000000     0.795520000000     0.261232   
C19      C      0.182940000000     0.240970000000     0.771660000000     0.332921   
C20      C      0.255120000000     0.286570000000     0.995120000000     0.330621   
C21      C      0.555920000000     0.726620000000     0.948160000000     0.338676   
C22      C      0.462430000000     0.607390000000     0.787760000000     0.264458   
C23      C      0.631930000000     0.656240000000     0.823390000000     0.338778   
C24      C      0.511840000000     0.567470000000     0.990580000000     0.341934   
C25      C      0.128920000000     0.079640000000     0.066060000000     0.341965   
C26      C      0.064670000000     0.067300000000     0.297610000000     0.256674   
C27      C      0.201380000000     0.050130000000     0.252090000000     0.34066    
C28      C      0.194800000000     0.199830000000     0.197270000000     0.343696   
C29      C      0.766810000000     0.640710000000     0.235320000000     0.338616   
C30      C      0.661150000000     0.551850000000     0.412800000000     0.265585   
C31      C      0.664860000000     0.693180000000     0.341160000000     0.341561   
C32      C      0.591950000000     0.566170000000     0.202870000000     0.335799   
C33      C      0.358130000000     0.079550000000     0.884910000000     0.341131   
C34      C      0.454510000000     0.033180000000     0.031930000000     0.263586   
C35      C      0.279480000000     0.940790000000     0.005920000000     0.341013   
C36      C      0.395970000000     0.965300000000     0.824460000000     0.341658   
C37      C      0.594280000000     0.895790000000     0.006440000000     0.347743   
C38      C      0.569510000000     0.027590000000     0.988440000000     0.263258   
C39      C      0.730480000000     0.048780000000     0.937080000000     0.342539   
C40      C      0.585970000000     0.944900000000     0.803560000000     0.339462   
C41      C      0.150940000000     0.814100000000     0.560550000000     0.339225   
C42      C      0.277200000000     0.816140000000     0.398180000000     0.264822   
C43      C      0.232630000000     0.931010000000     0.404670000000     0.337991   
C44      C      0.315600000000     0.898160000000     0.597870000000     0.337429   
C45      C      0.522890000000     0.879960000000     0.338930000000     0.265517   
C46      C      0.686180000000     0.993920000000     0.455660000000     0.335039   
C47      C      0.544970000000     0.886930000000     0.560640000000     0.343702   
C48      C      0.645690000000     0.843030000000     0.414130000000     0.339034   
C49      C      0.535270000000     0.044570000000     0.563650000000    -0.0210306  
C50      C      0.621820000000     0.060600000000     0.530770000000    -0.0193998  
C51      C      0.515180000000     0.023800000000     0.494710000000    -0.0263985  
C52      C      0.601860000000     0.040550000000     0.461370000000    -0.0268936  
C53      C      0.513410000000     0.920330000000     0.645790000000    -0.0099098  
C54      C      0.524760000000     0.852410000000     0.673280000000    -0.0109122  
C55      C      0.555770000000     0.953030000000     0.693440000000    -0.0167172  
C56      C      0.567790000000     0.882300000000     0.721660000000    -0.0155811  
C57      C      0.384290000000     0.964680000000     0.658400000000    -0.0158039  
C58      C      0.332860000000     0.881130000000     0.710240000000    -0.0156371  
C59      C      0.426220000000     0.974530000000     0.708520000000    -0.0113192  
C60      C      0.377170000000     0.894760000000     0.757630000000    -0.0124455  
C61      C      0.429630000000     0.878140000000     0.947630000000    -0.0260081  
C62      C      0.402930000000     0.798250000000     0.898250000000    -0.0239295  
C63      C      0.470390000000     0.901590000000     0.893960000000    -0.0183003  
C64      C      0.443580000000     0.821760000000     0.844470000000    -0.0241069  
C65      C      0.691140000000     0.816420000000     0.339110000000    -0.0136111  
C66      C      0.667330000000     0.783210000000     0.453610000000    -0.0134564  
C67      C      0.664670000000     0.766400000000     0.309590000000    -0.0142072  
C68      C      0.640340000000     0.732650000000     0.426120000000    -0.0142712  
C69      C      0.418420000000     0.396810000000     0.178150000000    -0.0246426  
C70      C      0.495590000000     0.445700000000     0.247790000000    -0.0240811  
C71      C      0.407710000000     0.352420000000     0.217400000000    -0.0241831  
C72      C      0.484810000000     0.401400000000     0.287250000000    -0.0231495  
C73      C      0.191370000000     0.943650000000     0.307500000000    -0.0157989  
C74      C      0.244200000000     0.011030000000     0.387390000000    -0.0146872  
C75      C      0.211570000000     0.979200000000     0.250120000000    -0.0127689  
C76      C      0.262750000000     0.045430000000     0.328390000000    -0.0136785  
C77      C      0.616560000000     0.805670000000     0.991600000000    -0.015635   
C78      C      0.522760000000     0.779900000000     0.974460000000    -0.0151757  
C79      C      0.617990000000     0.838100000000     0.047660000000    -0.0113596  
C80      C      0.527960000000     0.813470000000     0.031100000000    -0.0111963  
C81      C      0.514950000000     0.559600000000     0.155630000000    -0.0140241  
C82      C      0.568690000000     0.529480000000     0.093330000000    -0.0152908  
C83      C      0.475160000000     0.535580000000     0.101020000000    -0.0121555  
C84      C      0.525080000000     0.506200000000     0.043840000000    -0.0112308  
C85      C      0.369400000000     0.193420000000     0.893720000000    -0.0141361  
C86      C      0.280220000000     0.129480000000     0.863680000000    -0.0132951  
C87      C      0.389870000000     0.164440000000     0.859180000000    -0.0135732  
C88      C      0.302130000000     0.102740000000     0.827270000000    -0.0138371  
C89      C      0.187520000000     0.268180000000     0.159390000000    -0.00878396 
C90      C      0.271250000000     0.278130000000     0.180620000000    -0.0111532  
C91      C      0.194440000000     0.271560000000     0.084010000000    -0.0190696  
C92      C      0.285280000000     0.284600000000     0.106710000000    -0.0162843  
C93      C      0.428450000000     0.446860000000     0.904740000000    -0.0230024  
C94      C      0.369060000000     0.465740000000     0.966550000000    -0.0212171  
C95      C      0.414120000000     0.404750000000     0.951230000000    -0.0249272  
C96      C      0.354620000000     0.423450000000     0.012690000000    -0.0242125  
C97      C      0.077540000000     0.813220000000     0.614550000000    -0.0150608  
C98      C      0.087530000000     0.740060000000     0.615460000000    -0.0130713  
C99      C      0.057560000000     0.801430000000     0.686040000000    -0.0129651  
C100     C      0.068560000000     0.731080000000     0.687370000000    -0.0146746  
C101     C      0.722550000000     0.680610000000     0.831880000000    -0.0146676  
C102     C      0.674210000000     0.647310000000     0.724150000000    -0.0147296  
C103     C      0.768760000000     0.715520000000     0.791320000000    -0.0134316  
C104     C      0.721570000000     0.682560000000     0.685630000000    -0.0136472  
C105     C      0.808310000000     0.083820000000     0.407330000000    -0.0138351  
C106     C      0.804270000000     0.065920000000     0.530380000000    -0.0136608  
C107     C      0.752570000000     0.070780000000     0.409470000000    -0.0147674  
C108     C      0.749310000000     0.054690000000     0.531230000000    -0.0145312  
C109     C      0.972710000000     0.570880000000     0.704030000000    -0.028244   
C110     C      0.995510000000     0.603380000000     0.588190000000    -0.0276276  
C111     C      0.931540000000     0.523300000000     0.676040000000    -0.0193352  
C112     C      0.954720000000     0.555640000000     0.560320000000    -0.0182122  
C113     C      0.047190000000     0.183270000000     0.722330000000    -0.0114397  
C114     C      0.096010000000     0.168640000000     0.636420000000    -0.0123106  
C115     C      0.095760000000     0.224030000000     0.751970000000    -0.0162312  
C116     C      0.145920000000     0.209710000000     0.661860000000    -0.0155737  
C117     C      0.079480000000     0.275380000000     0.277560000000    -0.0119232  
C118     C      0.062480000000     0.192510000000     0.284370000000    -0.0129376  
C119     C      0.050190000000     0.264910000000     0.212180000000    -0.0171279  
C120     C      0.033310000000     0.179880000000     0.218640000000    -0.0159862  
C121     C      0.066290000000     0.045730000000     0.974850000000    -0.014015   
C122     C      0.158710000000     0.101370000000     0.950030000000    -0.00960282 
C123     C      0.058400000000     0.068650000000     0.912520000000    -0.0125692  
C124     C      0.147470000000     0.137560000000     0.916160000000    -0.0169864  
C125     C      0.805720000000     0.108610000000     0.998330000000    -0.014432   
C126     C      0.814660000000     0.080010000000     0.884710000000    -0.0144394  
C127     C      0.846030000000     0.159010000000     0.978870000000    -0.0133624  
C128     C      0.855650000000     0.130770000000     0.867490000000    -0.0133897  
C129     C      0.852320000000     0.704780000000     0.204510000000    -0.0143241  
C130     C      0.822220000000     0.618310000000     0.175090000000    -0.0146215  
C131     C      0.881900000000     0.719260000000     0.139010000000    -0.0134733  
C132     C      0.852740000000     0.635640000000     0.110580000000    -0.012575   
C133     C      0.970580000000     0.646210000000     0.414200000000    -0.0129174  
C134     C      0.992670000000     0.731480000000     0.413810000000    -0.0142905  
C135     C      0.914760000000     0.630920000000     0.425090000000    -0.0159286  
C136     C      0.936790000000     0.715980000000     0.426050000000    -0.0145936  
C137     C      0.920280000000     0.506100000000     0.149850000000    -0.019246   
C138     C      0.931830000000     0.536260000000     0.266910000000    -0.0200119  
C139     C      0.884830000000     0.525720000000     0.135840000000    -0.0271563  
C140     C      0.896360000000     0.555880000000     0.252950000000    -0.0256386  
C141     C      0.209600000000     0.856150000000     0.132420000000    -0.0160867  
C142     C      0.169850000000     0.827710000000     0.019100000000    -0.0146208  
C143     C      0.229970000000     0.907530000000     0.109650000000    -0.0126515  
C144     C      0.189030000000     0.879060000000     0.998680000000    -0.0130534  
Cd1      Cd     0.038670000000     0.702950000000     0.178300000000     0.508123   
Cd2      Cd     0.036720000000     0.212500000000     0.967720000000     0.504565   
Cd3      Cd     0.981750000000     0.212520000000     0.499100000000     0.508768   
Cd4      Cd     0.877510000000     0.659550000000     0.664720000000     0.507561   
Cd5      Cd     0.271570000000     0.282720000000     0.854800000000     0.503009   
Cd6      Cd     0.539700000000     0.638980000000     0.888830000000     0.506518   
Cd7      Cd     0.148530000000     0.098130000000     0.206170000000     0.507827   
Cd8      Cd     0.671210000000     0.611390000000     0.300470000000     0.507644   
Cd9      Cd     0.372880000000     0.004950000000     0.938120000000     0.507212   
Cd10     Cd     0.622420000000     0.982080000000     0.934900000000     0.504857   
Cd11     Cd     0.245070000000     0.865210000000     0.488210000000     0.508826   
Cd12     Cd     0.599400000000     0.900380000000     0.438660000000     0.505848   
H1       H      0.640380000000     0.099930000000     0.529640000000     0.0466783  
H2       H      0.544640000000     0.082230000000     0.565190000000     0.0477836  
H3       H      0.486170000000     0.032820000000     0.478640000000     0.0508411  
H4       H      0.650050000000     0.050630000000     0.546890000000     0.0473144  
H5       H      0.631120000000     0.061180000000     0.423340000000     0.0526724  
H6       H      0.592720000000     0.003030000000     0.458810000000     0.0716224  
H7       H      0.506140000000     0.024460000000     0.601920000000     0.0366513  
H8       H      0.497500000000     0.984530000000     0.496380000000     0.058085   
H9       H      0.488400000000     0.835940000000     0.701180000000     0.0420694  
H10      H      0.477170000000     0.903220000000     0.673740000000     0.0394517  
H11      H      0.544530000000     0.976910000000     0.718240000000     0.0527481  
H12      H      0.529840000000     0.823390000000     0.652550000000     0.0553807  
H13      H      0.564560000000     0.859720000000     0.764990000000     0.0543699  
H14      H      0.604440000000     0.892760000000     0.696710000000     0.0574471  
H15      H      0.509990000000     0.941400000000     0.604740000000     0.0490013  
H16      H      0.590450000000     0.975670000000     0.663850000000     0.0577169  
H17      H      0.301810000000     0.881980000000     0.738120000000     0.0561405  
H18      H      0.364470000000     0.983800000000     0.674770000000     0.0558389  
H19      H      0.448480000000     0.013160000000     0.719380000000     0.0508604  
H20      H      0.318220000000     0.843850000000     0.693890000000     0.0526763  
H21      H      0.363150000000     0.874430000000     0.804750000000     0.0511399  
H22      H      0.403500000000     0.884740000000     0.734310000000     0.0381193  
H23      H      0.402000000000     0.979780000000     0.609430000000     0.0482356  
H24      H      0.452200000000     0.963900000000     0.685670000000     0.0364074  
H25      H      0.417460000000     0.785360000000     0.939170000000     0.0455952  
H26      H      0.446780000000     0.873300000000     0.993600000000     0.0597888  
H27      H      0.504740000000     0.932240000000     0.915170000000     0.0668105  
H28      H      0.368510000000     0.767580000000     0.877040000000     0.0452988  
H29      H      0.460130000000     0.799040000000     0.832500000000     0.0432608  
H30      H      0.426450000000     0.826770000000     0.798630000000     0.0414045  
H31      H      0.413100000000     0.900880000000     0.959390000000     0.0679975  
H32      H      0.456340000000     0.914720000000     0.852980000000     0.0540501  
H33      H      0.707070000000     0.793130000000     0.465380000000     0.0488457  
H34      H      0.731610000000     0.827440000000     0.347540000000     0.0490929  
H35      H      0.686080000000     0.766280000000     0.264910000000     0.0543499  
H36      H      0.648770000000     0.784190000000     0.500670000000     0.055551   
H37      H      0.644820000000     0.709130000000     0.462190000000     0.0550161  
H38      H      0.599220000000     0.720390000000     0.422200000000     0.054474   
H39      H      0.689680000000     0.841420000000     0.302760000000     0.0537181  
H40      H      0.626180000000     0.757700000000     0.293000000000     0.0522334  
H41      H      0.523760000000     0.452280000000     0.208160000000     0.0511687  
H42      H      0.438950000000     0.398650000000     0.131610000000     0.0465559  
H43      H      0.392400000000     0.321230000000     0.183780000000     0.0424613  
H44      H      0.511210000000     0.477060000000     0.281130000000     0.0564265  
H45      H      0.520920000000     0.402860000000     0.300480000000     0.051003   
H46      H      0.464270000000     0.399590000000     0.333800000000     0.0514085  
H47      H      0.382330000000     0.395390000000     0.165010000000     0.0394709  
H48      H      0.379300000000     0.345490000000     0.256850000000     0.0452314  
H49      H      0.212610000000     0.013020000000     0.411850000000     0.05293    
H50      H      0.153580000000     0.938030000000     0.322110000000     0.0549028  
H51      H      0.182950000000     0.966740000000     0.209640000000     0.052212   
H52      H      0.275490000000     0.023020000000     0.424130000000     0.0550365  
H53      H      0.271020000000     0.081080000000     0.345430000000     0.0554146  
H54      H      0.298730000000     0.048580000000     0.310040000000     0.0505517  
H55      H      0.186030000000     0.909150000000     0.289420000000     0.0554574  
H56      H      0.246180000000     0.980270000000     0.230260000000     0.0464899  
H57      H      0.523990000000     0.797350000000     0.926430000000     0.0533415  
H58      H      0.634180000000     0.827670000000     0.946600000000     0.0568919  
H59      H      0.656950000000     0.868920000000     0.052790000000     0.0541008  
H60      H      0.484910000000     0.747330000000     0.978080000000     0.0509138  
H61      H      0.500470000000     0.826110000000     0.023860000000     0.050022   
H62      H      0.518450000000     0.793310000000     0.078590000000     0.0473048  
H63      H      0.640230000000     0.790020000000     0.006460000000     0.0546813  
H64      H      0.608000000000     0.817720000000     0.095010000000     0.0474005  
H65      H      0.601780000000     0.559070000000     0.067760000000     0.0584045  
H66      H      0.531540000000     0.598660000000     0.150920000000     0.0574476  
H67      H      0.453340000000     0.554320000000     0.094680000000     0.0487885  
H68      H      0.580370000000     0.503370000000     0.107950000000     0.0478137  
H69      H      0.539530000000     0.502350000000     0.994850000000     0.0468478  
H70      H      0.497620000000     0.470090000000     0.062310000000     0.041466   
H71      H      0.495890000000     0.549580000000     0.204930000000     0.0515595  
H72      H      0.448110000000     0.498580000000     0.116660000000     0.0439906  
H73      H      0.269000000000     0.114380000000     0.914500000000     0.0479811  
H74      H      0.366920000000     0.185920000000     0.947930000000     0.0523421  
H75      H      0.425040000000     0.170680000000     0.884650000000     0.0553751  
H76      H      0.245440000000     0.123390000000     0.837210000000     0.0463553  
H77      H      0.274010000000     0.064160000000     0.827750000000     0.0528991  
H78      H      0.308810000000     0.114720000000     0.774600000000     0.04885    
H79      H      0.396960000000     0.231780000000     0.886670000000     0.0535804  
H80      H      0.399880000000     0.177440000000     0.807200000000     0.0491921  
H81      H      0.282850000000     0.313570000000     0.202330000000     0.0372771  
H82      H      0.201980000000     0.304530000000     0.179630000000     0.039499   
H83      H      0.184780000000     0.297960000000     0.064150000000     0.0610052  
H84      H      0.292400000000     0.263480000000     0.207180000000     0.048999   
H85      H      0.321610000000     0.318340000000     0.099610000000     0.042797   
H86      H      0.292680000000     0.255710000000     0.091630000000     0.0577751  
H87      H      0.146660000000     0.246900000000     0.171730000000     0.0503379  
H88      H      0.166510000000     0.236750000000     0.062020000000     0.0708357  
H89      H      0.398360000000     0.498880000000     0.990600000000     0.0544209  
H90      H      0.464270000000     0.477920000000     0.921580000000     0.0580267  
H91      H      0.447860000000     0.401200000000     0.961490000000     0.0442286  
H92      H      0.335340000000     0.469300000000     0.956290000000     0.0538169  
H93      H      0.348510000000     0.432150000000     0.063980000000     0.0393728  
H94      H      0.319000000000     0.392290000000     0.994910000000     0.0593948  
H95      H      0.434260000000     0.437900000000     0.853500000000     0.0525632  
H96      H      0.384680000000     0.371540000000     0.927380000000     0.0663979  
H97      H      0.055190000000     0.717540000000     0.582120000000     0.0460765  
H98      H      0.044540000000     0.799570000000     0.580320000000     0.0508435  
H99      H      0.030650000000     0.814470000000     0.695370000000     0.0534279  
H100     H      0.116240000000     0.728790000000     0.609670000000     0.0546235  
H101     H      0.050090000000     0.692580000000     0.698810000000     0.0533089  
H102     H      0.101790000000     0.750060000000     0.720920000000     0.0483176  
H103     H      0.099590000000     0.852410000000     0.608780000000     0.0538337  
H104     H      0.090170000000     0.820340000000     0.720550000000     0.0471897  
H105     H      0.672990000000     0.612600000000     0.725590000000     0.0535551  
H106     H      0.727010000000     0.649730000000     0.845110000000     0.0522031  
H107     H      0.803870000000     0.724370000000     0.819260000000     0.0542464  
H108     H      0.640180000000     0.642070000000     0.696580000000     0.0559111  
H109     H      0.722150000000     0.667130000000     0.636560000000     0.05743    
H110     H      0.719200000000     0.715100000000     0.676510000000     0.0488761  
H111     H      0.721860000000     0.698190000000     0.878940000000     0.0549109  
H112     H      0.767250000000     0.748740000000     0.785060000000     0.0487937  
H113     H      0.804590000000     0.032110000000     0.524540000000     0.0517249  
H114     H      0.810100000000     0.052230000000     0.390120000000     0.0519837  
H115     H      0.734550000000     0.055670000000     0.360730000000     0.0544418  
H116     H      0.821900000000     0.081610000000     0.579100000000     0.0542538  
H117     H      0.728380000000     0.028480000000     0.571150000000     0.0513875  
H118     H      0.748970000000     0.087870000000     0.543320000000     0.0446827  
H119     H      0.828450000000     0.112450000000     0.370050000000     0.0546592  
H120     H      0.751080000000     0.103860000000     0.417630000000     0.0460325  
H121     H      0.980290000000     0.628000000000     0.591780000000     0.0593729  
H122     H      0.955490000000     0.592350000000     0.719910000000     0.0676199  
H123     H      0.898040000000     0.507620000000     0.709390000000     0.0467147  
H124     H      0.029010000000     0.619370000000     0.554840000000     0.0436012  
H125     H      0.936710000000     0.561230000000     0.516020000000     0.0434997  
H126     H      0.972170000000     0.534130000000     0.545400000000     0.0463266  
H127     H      0.990930000000     0.564870000000     0.747830000000     0.0483311  
H128     H      0.946340000000     0.498340000000     0.672380000000     0.0477401  
H129     H      0.088770000000     0.135800000000     0.662810000000     0.0462317  
H130     H      0.038770000000     0.150010000000     0.748550000000     0.0505151  
H131     H      0.091790000000     0.222760000000     0.806960000000     0.0668904  
H132     H      0.099240000000     0.163390000000     0.582430000000     0.0557264  
H133     H      0.175760000000     0.199770000000     0.656690000000     0.0550141  
H134     H      0.156830000000     0.241130000000     0.629650000000     0.0564219  
H135     H      0.015080000000     0.189620000000     0.731320000000     0.0628463  
H136     H      0.099570000000     0.258150000000     0.734880000000     0.060006   
H137     H      0.102790000000     0.204290000000     0.273620000000     0.058053   
H138     H      0.119980000000     0.288450000000     0.265670000000     0.0428644  
H139     H      0.069230000000     0.296970000000     0.180110000000     0.0528137  
H140     H      0.047380000000     0.160320000000     0.316130000000     0.0603315  
H141     H      0.041290000000     0.154700000000     0.191090000000     0.0661133  
H142     H      0.992100000000     0.161080000000     0.229970000000     0.0556677  
H143     H      0.077190000000     0.304020000000     0.304610000000     0.0539325  
H144     H      0.011450000000     0.258320000000     0.223190000000     0.0552694  
H145     H      0.197350000000     0.120000000000     0.971970000000     0.0533808  
H146     H      0.038520000000     0.042480000000     0.013320000000     0.0632685  
H147     H      0.017870000000     0.058480000000     0.907920000000     0.0527065  
H148     H      0.158090000000     0.076600000000     0.911440000000     0.0394922  
H149     H      0.169020000000     0.172180000000     0.942290000000     0.0703124  
H150     H      0.161100000000     0.142950000000     0.863960000000     0.056491   
H151     H      0.058200000000     0.009290000000     0.962690000000     0.0445563  
H152     H      0.068440000000     0.054720000000     0.868060000000     0.0407697  
H153     H      0.833640000000     0.060280000000     0.901720000000     0.0525083  
H154     H      0.824410000000     0.092230000000     0.026640000000     0.0534575  
H155     H      0.866460000000     0.178930000000     0.024170000000     0.0544639  
H156     H      0.793070000000     0.062400000000     0.838840000000     0.0540899  
H157     H      0.883080000000     0.129720000000     0.832120000000     0.0551592  
H158     H      0.837130000000     0.148470000000     0.842120000000     0.0502737  
H159     H      0.777880000000     0.110600000000     0.031930000000     0.0554173  
H160     H      0.826570000000     0.177030000000     0.957020000000     0.0496631  
H161     H      0.844730000000     0.611140000000     0.211920000000     0.0496856  
H162     H      0.878990000000     0.709570000000     0.245440000000     0.0503023  
H163     H      0.915480000000     0.755390000000     0.143850000000     0.0544371  
H164     H      0.786990000000     0.584160000000     0.165000000000     0.0551953  
H165     H      0.864820000000     0.610160000000     0.094410000000     0.0497927  
H166     H      0.827770000000     0.636910000000     0.071310000000     0.0478937  
H167     H      0.837380000000     0.729160000000     0.214190000000     0.054497   
H168     H      0.856930000000     0.720510000000     0.099700000000     0.0481205  
H169     H      0.012070000000     0.738730000000     0.462810000000     0.0489326  
H170     H      0.988470000000     0.649770000000     0.463580000000     0.0416445  
H171     H      0.895560000000     0.596850000000     0.452780000000     0.0499859  
H172     H      0.010840000000     0.764980000000     0.384690000000     0.056373   
H173     H      0.934230000000     0.743780000000     0.455000000000     0.0549562  
H174     H      0.918390000000     0.712600000000     0.377040000000     0.0494533  
H175     H      0.973420000000     0.618280000000     0.386090000000     0.0440364  
H176     H      0.896250000000     0.624940000000     0.375620000000     0.0454636  
H177     H      0.910290000000     0.500960000000     0.291200000000     0.0463288  
H178     H      0.897590000000     0.467760000000     0.162330000000     0.0472307  
H179     H      0.853780000000     0.501440000000     0.102130000000     0.0454221  
H180     H      0.962900000000     0.560460000000     0.300570000000     0.0526469  
H181     H      0.873030000000     0.551680000000     0.297540000000     0.0423136  
H182     H      0.918950000000     0.594210000000     0.240580000000     0.0618107  
H183     H      0.943610000000     0.510280000000     0.105260000000     0.0492629  
H184     H      0.906430000000     0.560940000000     0.111470000000     0.0638111  
H185     H      0.197540000000     0.817300000000     0.001610000000     0.0519362  
H186     H      0.240190000000     0.847310000000     0.126160000000     0.053647   
H187     H      0.266400000000     0.930980000000     0.135340000000     0.0520683  
H188     H      0.133300000000     0.804650000000     0.993410000000     0.0548442  
H189     H      0.195330000000     0.882530000000     0.944060000000     0.0537005  
H190     H      0.159070000000     0.887930000000     0.010420000000     0.0496918  
H191     H      0.200370000000     0.853590000000     0.186270000000     0.0565677  
H192     H      0.202300000000     0.918520000000     0.124930000000     0.044992   
N1       N      0.556590000000     0.042890000000     0.447660000000    -0.0891994  
N2       N      0.580350000000     0.042010000000     0.577680000000    -0.0983579  
N3       N      0.567610000000     0.925940000000     0.742300000000    -0.150274   
N4       N      0.524010000000     0.883750000000     0.621690000000    -0.152654   
N5       N      0.403230000000     0.946060000000     0.768170000000    -0.154249   
N6       N      0.346460000000     0.913540000000     0.652420000000    -0.15045    
N7       N      0.483010000000     0.867400000000     0.867880000000    -0.0900841  
N8       N      0.390190000000     0.832370000000     0.924430000000    -0.0945171  
N9       N      0.659580000000     0.730930000000     0.359430000000    -0.150414   
N10      N      0.667630000000     0.815920000000     0.403040000000    -0.151117   
N11      N      0.454020000000     0.359540000000     0.247710000000    -0.0953157  
N12      N      0.449230000000     0.438610000000     0.217750000000    -0.0994181  
N13      N      0.224960000000     0.026510000000     0.274860000000    -0.15074    
N14      N      0.225390000000     0.961600000000     0.365730000000    -0.149793   
N15      N      0.580510000000     0.852480000000     0.033330000000    -0.151676   
N16      N      0.564140000000     0.768520000000     0.974900000000    -0.150205   
N17      N      0.500690000000     0.534950000000     0.039970000000    -0.154275   
N18      N      0.556720000000     0.548660000000     0.153190000000    -0.151076   
N19      N      0.350620000000     0.114060000000     0.857970000000    -0.151218   
N20      N      0.318370000000     0.180310000000     0.869210000000    -0.15235    
N21      N      0.246010000000     0.283730000000     0.061930000000    -0.148836   
N22      N      0.216520000000     0.247530000000     0.186750000000    -0.152904   
N23      N      0.394640000000     0.411900000000     0.013000000000    -0.100159   
N24      N      0.388720000000     0.458860000000     0.904730000000    -0.0844917  
N25      N      0.034290000000     0.750090000000     0.696230000000    -0.152487   
N26      N      0.107570000000     0.790380000000     0.597280000000    -0.151748   
N27      N      0.766870000000     0.695040000000     0.725620000000    -0.150961   
N28      N      0.675400000000     0.663430000000     0.793120000000    -0.150341   
N29      N      0.727010000000     0.038120000000     0.465040000000    -0.154185   
N30      N      0.831620000000     0.097320000000     0.473960000000    -0.151437   
N31      N      0.916740000000     0.530400000000     0.610660000000    -0.0899708  
N32      N      0.010490000000     0.596420000000     0.653530000000    -0.0942309  
N33      N      0.141420000000     0.222390000000     0.731120000000    -0.149115   
N34      N      0.055250000000     0.178640000000     0.651520000000    -0.151475   
N35      N      0.045810000000     0.222550000000     0.178770000000    -0.151207   
N36      N      0.059450000000     0.231490000000     0.316360000000    -0.1513     
N37      N      0.092530000000     0.120340000000     0.916050000000    -0.148755   
N38      N      0.118890000000     0.073930000000     0.999440000000    -0.149109   
N39      N      0.879910000000     0.156840000000     0.928780000000    -0.151109   
N40      N      0.781570000000     0.079600000000     0.938670000000    -0.150989   
N41      N      0.895700000000     0.683420000000     0.121720000000    -0.152194   
N42      N      0.811570000000     0.654460000000     0.203210000000    -0.151332   
N43      N      0.911850000000     0.669420000000     0.459440000000    -0.150873   
N44      N      0.995940000000     0.692690000000     0.380670000000    -0.152264   
N45      N      0.863620000000     0.530650000000     0.197600000000    -0.0964088  
N46      N      0.953040000000     0.531390000000     0.205140000000    -0.0906173  
N47      N      0.234870000000     0.910530000000     0.036840000000    -0.151526   
N48      N      0.165580000000     0.822820000000     0.092070000000    -0.150172   
O1       O      0.029790000000     0.635200000000     0.113360000000    -0.222638   
O2       O      0.010980000000     0.662500000000     0.285690000000    -0.257984   
O3       O      0.953200000000     0.657520000000     0.130280000000    -0.254095   
O4       O      0.087350000000     0.755290000000     0.086240000000    -0.250799   
O5       O      0.121910000000     0.777070000000     0.182520000000    -0.243006   
O6       O      0.978550000000     0.730380000000     0.154100000000    -0.250697   
O7       O      0.083160000000     0.658150000000     0.194070000000    -0.220617   
O8       O      0.031840000000     0.736050000000     0.285620000000    -0.244777   
O9       O      0.103660000000     0.194310000000     0.938030000000    -0.24135    
O10      O      0.951050000000     0.197130000000     0.993840000000    -0.250172   
O11      O      0.050170000000     0.269190000000     0.877660000000    -0.232399   
O12      O      0.036400000000     0.182780000000     0.080430000000    -0.247547   
O13      O      0.049230000000     0.253870000000     0.074880000000    -0.247404   
O14      O      0.110360000000     0.292240000000     0.948600000000    -0.218166   
O15      O      0.027630000000     0.135320000000     0.936800000000    -0.248525   
O16      O      0.959450000000     0.171570000000     0.898860000000    -0.247211   
O17      O      0.904680000000     0.161210000000     0.434080000000    -0.249599   
O18      O      0.041440000000     0.188760000000     0.541930000000    -0.246805   
O19      O      0.944100000000     0.263940000000     0.509480000000    -0.226462   
O20      O      0.030880000000     0.258880000000     0.401990000000    -0.248084   
O21      O      0.015390000000     0.186830000000     0.407000000000    -0.243007   
O22      O      0.022070000000     0.295310000000     0.538280000000    -0.222498   
O23      O      0.901560000000     0.144800000000     0.537880000000    -0.249673   
O24      O      0.998140000000     0.200570000000     0.615880000000    -0.244542   
O25      O      0.963220000000     0.676370000000     0.690300000000    -0.260271   
O26      O      0.799860000000     0.664440000000     0.650290000000    -0.247136   
O27      O      0.868890000000     0.606120000000     0.756610000000    -0.226861   
O28      O      0.881650000000     0.626670000000     0.556280000000    -0.247386   
O29      O      0.898580000000     0.699200000000     0.556170000000    -0.24924    
O30      O      0.827710000000     0.572350000000     0.667480000000    -0.218389   
O31      O      0.952910000000     0.737050000000     0.689250000000    -0.247099   
O32      O      0.841090000000     0.693900000000     0.740930000000    -0.248244   
O33      O      0.339780000000     0.339520000000     0.781080000000    -0.228908   
O34      O      0.221510000000     0.280160000000     0.952790000000    -0.232707   
O35      O      0.335150000000     0.257660000000     0.870580000000    -0.248397   
O36      O      0.224550000000     0.244880000000     0.752970000000    -0.246299   
O37      O      0.182410000000     0.256390000000     0.829310000000    -0.233579   
O38      O      0.259210000000     0.202720000000     0.848090000000    -0.261314   
O39      O      0.301610000000     0.367820000000     0.837900000000    -0.231082   
O40      O      0.296840000000     0.293330000000     0.972080000000    -0.256728   
O41      O      0.498340000000     0.649860000000     0.790620000000    -0.223221   
O42      O      0.496490000000     0.597080000000     0.992100000000    -0.253506   
O43      O      0.591340000000     0.717410000000     0.941010000000    -0.246769   
O44      O      0.590160000000     0.638860000000     0.792670000000    -0.24753    
O45      O      0.630920000000     0.665820000000     0.884150000000    -0.243034   
O46      O      0.512740000000     0.695200000000     0.927710000000    -0.248328   
O47      O      0.462300000000     0.579540000000     0.831670000000    -0.226912   
O48      O      0.539480000000     0.570660000000     0.941750000000    -0.255055   
O49      O      0.058820000000     0.050670000000     0.239490000000    -0.219836   
O50      O      0.220940000000     0.180370000000     0.210160000000    -0.244526   
O51      O      0.094210000000     0.059360000000     0.109080000000    -0.239569   
O52      O      0.212160000000     0.090570000000     0.273980000000    -0.245703   
O53      O      0.166910000000     0.032470000000     0.208520000000    -0.251521   
O54      O      0.173050000000     0.106970000000     0.088240000000    -0.24937    
O55      O      0.109310000000     0.098140000000     0.313490000000    -0.228433   
O56      O      0.147610000000     0.172300000000     0.190840000000    -0.257755   
O57      O      0.700820000000     0.591280000000     0.403030000000    -0.224001   
O58      O      0.587500000000     0.587740000000     0.252440000000    -0.250956   
O59      O      0.732120000000     0.597690000000     0.238070000000    -0.24607    
O60      O      0.656800000000     0.660200000000     0.381440000000    -0.247592   
O61      O      0.676850000000     0.688580000000     0.282500000000    -0.244924   
O62      O      0.757680000000     0.670180000000     0.264250000000    -0.24646    
O63      O      0.626130000000     0.539960000000     0.370650000000    -0.232618   
O64      O      0.632210000000     0.564000000000     0.200100000000    -0.248616   
O65      O      0.429780000000     0.054770000000     0.027540000000    -0.219082   
O66      O      0.412890000000     0.009430000000     0.830070000000    -0.25087    
O67      O      0.400020000000     0.088590000000     0.910290000000    -0.243306   
O68      O      0.318650000000     0.969730000000     0.037880000000    -0.249967   
O69      O      0.283950000000     0.941510000000     0.943410000000    -0.246352   
O70      O      0.323460000000     0.036550000000     0.885620000000    -0.251126   
O71      O      0.441450000000     0.998530000000     0.992890000000    -0.233536   
O72      O      0.369870000000     0.939760000000     0.872640000000    -0.253028   
O73      O      0.578840000000     0.000540000000     0.023230000000    -0.223704   
O74      O      0.589450000000     0.983510000000     0.822690000000    -0.246225   
O75      O      0.561680000000     0.905750000000     0.985020000000    -0.25233    
O76      O      0.702030000000     0.044270000000     0.985600000000    -0.248955   
O77      O      0.708900000000     0.022560000000     0.887400000000    -0.25129    
O78      O      0.640280000000     0.927060000000     0.997820000000    -0.24857    
O79      O      0.584640000000     0.033600000000     0.928880000000    -0.222101   
O80      O      0.600330000000     0.924630000000     0.844640000000    -0.249718   
O81      O      0.231410000000     0.798970000000     0.415120000000    -0.216813   
O82      O      0.320320000000     0.925570000000     0.550200000000    -0.243989   
O83      O      0.175120000000     0.794200000000     0.540530000000    -0.241868   
O84      O      0.212530000000     0.887330000000     0.390790000000    -0.247216   
O85      O      0.258920000000     0.944460000000     0.457350000000    -0.243495   
O86      O      0.169510000000     0.857360000000     0.545040000000    -0.251262   
O87      O      0.308120000000     0.856010000000     0.422880000000    -0.227465   
O88      O      0.279230000000     0.856000000000     0.593490000000    -0.250748   
O89      O      0.666680000000     0.979060000000     0.398920000000    -0.248196   
O90      O      0.623410000000     0.840880000000     0.468120000000    -0.24308    
O91      O      0.557870000000     0.921770000000     0.350870000000    -0.224463   
O92      O      0.551730000000     0.919090000000     0.519660000000    -0.257176   
O93      O      0.561410000000     0.859630000000     0.543540000000    -0.241913   
O94      O      0.523310000000     0.847590000000     0.373090000000    -0.227703   
O95      O      0.665650000000     0.965460000000     0.503480000000    -0.257168   
O96      O      0.646290000000     0.871610000000     0.370980000000    -0.250049   


