data_structure

_audit_creation_method RASPA-1.0
_audit_creation_date 2023-5-22
_audit_author_name 'Poobodin Mano'

_cell_length_a    30.7147
_cell_length_b    28.9603
_cell_length_c    30.4981
_cell_angle_alpha 89.9984
_cell_angle_beta  89.9985
_cell_angle_gamma 119.924
_cell_volume      23511.7

_symmetry_cell_setting          triclinic
_symmetry_space_group_name_Hall 'P 1'
_symmetry_space_group_name_H-M  'P 1'
_symmetry_Int_Tables_number     1

_symmetry_equiv_pos_as_xyz 'x,y,z'

loop_
_atom_site_label
_atom_site_type_symbol
_atom_site_fract_x
_atom_site_fract_y
_atom_site_fract_z
_atom_site_charge
C1       C      0.498850000000     0.601380000000     0.180810000000     0.340332   
C2       C      0.513570000000     0.706530000000     0.308180000000     0.342291   
C3       C      0.358150000000     0.601050000000     0.243080000000     0.342638   
C4       C      0.437200000000     0.520820000000     0.318880000000     0.339559   
C5       C      0.207420000000     0.601850000000     0.154260000000     0.342433   
C6       C      0.046310000000     0.513160000000     0.581930000000     0.33953    
C7       C      0.079280000000     0.630810000000     0.193400000000     0.341694   
C8       C      0.166900000000     0.691780000000     0.052990000000     0.343122   
C9       C      0.520230000000     0.958590000000     0.503380000000     0.339716   
C10      C      0.482280000000     0.838040000000     0.398170000000     0.337855   
C11      C      0.341210000000     0.824390000000     0.482050000000     0.340282   
C12      C      0.415970000000     0.958760000000     0.389150000000     0.339951   
C13      C      0.949580000000     0.529090000000     0.313880000000     0.339835   
C14      C      0.794150000000     0.461130000000     0.388740000000     0.341462   
C15      C      0.836580000000     0.343490000000     0.321950000000     0.343564   
C16      C      0.925630000000     0.443890000000     0.449030000000     0.338788   
C17      C      0.470890000000     0.422400000000     0.438890000000     0.337141   
C18      C      0.539260000000     0.374440000000     0.565800000000     0.341132   
C19      C      0.634850000000     0.474390000000     0.441440000000     0.339858   
C20      C      0.560140000000     0.546290000000     0.041310000000     0.336338   
C21      C      0.540340000000     0.232990000000     0.176460000000     0.34335    
C22      C      0.499730000000     0.094240000000     0.267240000000     0.337646   
C23      C      0.575250000000     0.093450000000     0.133680000000     0.338186   
C24      C      0.674180000000     0.210390000000     0.240580000000     0.337784   
C25      C      0.500630000000     0.281610000000     0.090010000000    -0.0152658  
C26      C      0.576670000000     0.355140000000     0.130060000000    -0.0150649  
C27      C      0.482320000000     0.252210000000     0.133860000000    -0.0126554  
C28      C      0.555110000000     0.325020000000     0.172880000000    -0.0122885  
C29      C      0.702690000000     0.422170000000     0.394290000000    -0.0143041  
C30      C      0.762090000000     0.514190000000     0.425760000000    -0.0149212  
C31      C      0.666870000000     0.441930000000     0.381700000000    -0.0126376  
C32      C      0.722650000000     0.530500000000     0.415200000000    -0.0135116  
C33      C      0.762160000000     0.281450000000     0.234850000000    -0.015328   
C34      C      0.725600000000     0.230230000000     0.307000000000    -0.0155173  
C35      C      0.814140000000     0.294700000000     0.251460000000    -0.0117555  
C36      C      0.779230000000     0.245890000000     0.320550000000    -0.0117144  
C37      C      0.433720000000     0.004280000000     0.286530000000    -0.0150907  
C38      C      0.472670000000     0.080190000000     0.344000000000    -0.0151013  
C39      C      0.388980000000     0.975220000000     0.317430000000    -0.0114213  
C40      C      0.426070000000     0.047020000000     0.372220000000    -0.0117174  
C41      C      0.546450000000     0.001940000000     0.109830000000    -0.0152856  
C42      C      0.577640000000     0.079270000000     0.554000000000    -0.0151401  
C43      C      0.559580000000     0.971750000000     0.076080000000    -0.0121487  
C44      C      0.591580000000     0.047090000000     0.523010000000    -0.0121987  
C45      C      0.017780000000     0.439610000000     0.528040000000    -0.012245   
C46      C      0.955620000000     0.452920000000     0.568870000000    -0.0119056  
C47      C      0.000450000000     0.450560000000     0.484090000000    -0.0151751  
C48      C      0.936710000000     0.466300000000     0.527150000000    -0.0150494  
C49      C      0.074040000000     0.637120000000     0.273700000000    -0.0114124  
C50      C      0.007750000000     0.634820000000     0.226690000000    -0.0121124  
C51      C      0.038210000000     0.583020000000     0.293860000000    -0.0150316  
C52      C      0.968050000000     0.581230000000     0.245980000000    -0.015128   
C53      C      0.262560000000     0.737760000000     0.481030000000    -0.0153402  
C54      C      0.277920000000     0.807830000000     0.539100000000    -0.0154292  
C55      C      0.207050000000     0.722080000000     0.480920000000    -0.0121569  
C56      C      0.221690000000     0.789480000000     0.537560000000    -0.0124475  
C57      C      0.596090000000     0.615220000000     0.099400000000    -0.0130512  
C58      C      0.518740000000     0.597920000000     0.060740000000    -0.0122756  
C59      C      0.568230000000     0.597880000000     0.143390000000    -0.0149891  
C60      C      0.487530000000     0.577890000000     0.102640000000    -0.0149415  
C61      C      0.440330000000     0.401390000000     0.362700000000    -0.0117971  
C62      C      0.396210000000     0.427350000000     0.415790000000    -0.0120573  
C63      C      0.459570000000     0.452890000000     0.336550000000    -0.0147896  
C64      C      0.411740000000     0.479710000000     0.391560000000    -0.0151736  
C65      C      0.540900000000     0.753530000000     0.379130000000    -0.0119918  
C66      C      0.548490000000     0.804060000000     0.311760000000    -0.0118406  
C67      C      0.501260000000     0.765090000000     0.398210000000    -0.0153077  
C68      C      0.509740000000     0.818640000000     0.328240000000    -0.0155795  
C69      C      0.266990000000     0.549070000000     0.225640000000    -0.0135435  
C70      C      0.312150000000     0.648740000000     0.226870000000    -0.0130896  
C71      C      0.246270000000     0.549190000000     0.179810000000    -0.0144048  
C72      C      0.295230000000     0.649700000000     0.180100000000    -0.0138597  
C73      C      0.499350000000     0.601190000000     0.681140000000     0.340272   
C74      C      0.514150000000     0.706170000000     0.808720000000     0.342324   
C75      C      0.358830000000     0.601050000000     0.743500000000     0.34261    
C76      C      0.437530000000     0.520390000000     0.819180000000     0.339598   
C77      C      0.208560000000     0.602800000000     0.654740000000     0.342252   
C78      C      0.044980000000     0.511590000000     0.081660000000     0.339361   
C79      C      0.080290000000     0.631450000000     0.694270000000     0.341552   
C80      C      0.168300000000     0.693580000000     0.554090000000     0.343153   
C81      C      0.518430000000     0.957590000000     0.003570000000     0.339587   
C82      C      0.482000000000     0.837200000000     0.898300000000     0.337737   
C83      C      0.339950000000     0.822810000000     0.981320000000     0.340349   
C84      C      0.414830000000     0.957040000000     0.888400000000     0.339824   
C85      C      0.949640000000     0.528810000000     0.813980000000     0.33988    
C86      C      0.794070000000     0.461700000000     0.888270000000     0.341354   
C87      C      0.835510000000     0.343220000000     0.821560000000     0.343563   
C88      C      0.924550000000     0.442770000000     0.948830000000     0.338623   
C89      C      0.471280000000     0.422260000000     0.939150000000     0.336863   
C90      C      0.540830000000     0.375250000000     0.065710000000     0.341425   
C91      C      0.635480000000     0.475830000000     0.941050000000     0.339786   
C92      C      0.560110000000     0.545930000000     0.541420000000     0.336354   
C93      C      0.538370000000     0.231770000000     0.676130000000     0.343379   
C94      C      0.498510000000     0.092920000000     0.766570000000     0.337522   
C95      C      0.574580000000     0.093190000000     0.633100000000     0.338044   
C96      C      0.672860000000     0.210080000000     0.740170000000     0.33785    
C97      C      0.499080000000     0.280660000000     0.589640000000    -0.0152327  
C98      C      0.574240000000     0.354200000000     0.630660000000    -0.0151228  
C99      C      0.480360000000     0.250720000000     0.633220000000    -0.0126684  
C100     C      0.552230000000     0.323480000000     0.673150000000    -0.0122398  
C101     C      0.702670000000     0.423690000000     0.892900000000    -0.0143695  
C102     C      0.762410000000     0.514860000000     0.925720000000    -0.0150161  
C103     C      0.667430000000     0.444320000000     0.880580000000    -0.0125202  
C104     C      0.723490000000     0.531950000000     0.915330000000    -0.0134334  
C105     C      0.760780000000     0.281350000000     0.734490000000    -0.0152983  
C106     C      0.724290000000     0.230090000000     0.806610000000    -0.015544   
C107     C      0.812770000000     0.294530000000     0.751000000000    -0.0118197  
C108     C      0.777920000000     0.245670000000     0.820100000000    -0.0117022  
C109     C      0.433010000000     0.002650000000     0.785730000000    -0.0151134  
C110     C      0.471160000000     0.078510000000     0.843260000000    -0.0150832  
C111     C      0.388130000000     0.973250000000     0.816430000000    -0.0114896  
C112     C      0.424450000000     0.045050000000     0.871280000000    -0.0117245  
C113     C      0.546970000000     0.001920000000     0.609040000000    -0.0152001  
C114     C      0.576550000000     0.078830000000     0.054590000000    -0.0148252  
C115     C      0.561720000000     0.972770000000     0.575700000000    -0.0117952  
C116     C      0.589620000000     0.046230000000     0.023310000000    -0.0123624  
C117     C      0.016350000000     0.437880000000     0.027930000000    -0.0120695  
C118     C      0.954280000000     0.451300000000     0.068750000000    -0.0118304  
C119     C      0.999100000000     0.448900000000     0.983960000000    -0.0154309  
C120     C      0.935380000000     0.464730000000     0.027040000000    -0.0151024  
C121     C      0.074560000000     0.636680000000     0.774620000000    -0.0114098  
C122     C      0.008740000000     0.635380000000     0.727590000000    -0.0121401  
C123     C      0.038410000000     0.582360000000     0.794280000000    -0.0150488  
C124     C      0.968760000000     0.581620000000     0.746390000000    -0.0151117  
C125     C      0.261540000000     0.735940000000     0.980300000000    -0.0153161  
C126     C      0.276220000000     0.806280000000     0.037910000000    -0.015407   
C127     C      0.205940000000     0.719900000000     0.979880000000    -0.012198   
C128     C      0.219930000000     0.787600000000     0.036040000000    -0.012434   
C129     C      0.596400000000     0.614690000000     0.599630000000    -0.0130313  
C130     C      0.519210000000     0.598030000000     0.561030000000    -0.0123432  
C131     C      0.568520000000     0.597370000000     0.643620000000    -0.0150621  
C132     C      0.487970000000     0.578020000000     0.602910000000    -0.0149147  
C133     C      0.440510000000     0.400860000000     0.863050000000    -0.0117886  
C134     C      0.396430000000     0.426900000000     0.916100000000    -0.0120846  
C135     C      0.459690000000     0.452290000000     0.836800000000    -0.0147865  
C136     C      0.411900000000     0.479200000000     0.891800000000    -0.0150933  
C137     C      0.541110000000     0.753040000000     0.879750000000    -0.0119384  
C138     C      0.549100000000     0.803690000000     0.812380000000    -0.0117298  
C139     C      0.501320000000     0.764500000000     0.898610000000    -0.0153541  
C140     C      0.510210000000     0.818190000000     0.828610000000    -0.0156203  
C141     C      0.267750000000     0.549290000000     0.725740000000    -0.0135575  
C142     C      0.312960000000     0.648950000000     0.727600000000    -0.0130075  
C143     C      0.247280000000     0.549870000000     0.679890000000    -0.014381   
C144     C      0.296280000000     0.650370000000     0.680830000000    -0.0138703  
Cd1      Cd     0.452980000000     0.607430000000     0.261930000000     0.508077   
Cd2      Cd     0.124110000000     0.609260000000     0.119010000000     0.507875   
Cd3      Cd     0.439280000000     0.893270000000     0.444180000000     0.508049   
Cd4      Cd     0.876620000000     0.443830000000     0.368130000000     0.508222   
Cd5      Cd     0.552440000000     0.452570000000     0.499630000000     0.504507   
Cd6      Cd     0.574000000000     0.160070000000     0.203500000000     0.507825   
Cd7      Cd     0.453550000000     0.607180000000     0.762330000000     0.508063   
Cd8      Cd     0.125350000000     0.610560000000     0.619690000000     0.507876   
Cd9      Cd     0.438200000000     0.891930000000     0.943870000000     0.508019   
Cd10     Cd     0.876060000000     0.443530000000     0.867860000000     0.508209   
Cd11     Cd     0.553160000000     0.453170000000     0.999630000000     0.504396   
Cd12     Cd     0.572700000000     0.159360000000     0.703010000000     0.507808   
H1       H      0.605840000000     0.346170000000     0.118030000000     0.0544681  
H2       H      0.518080000000     0.262710000000     0.571020000000     0.0533046  
H3       H      0.460840000000     0.208530000000     0.127910000000     0.0528502  
H4       H      0.595470000000     0.398590000000     0.137030000000     0.0537291  
H5       H      0.586160000000     0.334700000000     0.196390000000     0.0527626  
H6       H      0.530310000000     0.338800000000     0.187340000000     0.0459332  
H7       H      0.466080000000     0.274490000000     0.570020000000     0.0532674  
H8       H      0.456320000000     0.264000000000     0.148920000000     0.0459765  
H9       H      0.759140000000     0.503970000000     0.461190000000     0.0526797  
H10      H      0.689830000000     0.399970000000     0.425760000000     0.0545296  
H11      H      0.627840000000     0.407720000000     0.380120000000     0.0548139  
H12      H      0.800140000000     0.549070000000     0.420240000000     0.0537954  
H13      H      0.724830000000     0.559700000000     0.440010000000     0.0533402  
H14      H      0.731840000000     0.550410000000     0.382620000000     0.0473606  
H15      H      0.700560000000     0.393740000000     0.368710000000     0.0547337  
H16      H      0.677200000000     0.459800000000     0.348370000000     0.0475671  
H17      H      0.714150000000     0.255690000000     0.325300000000     0.057032   
H18      H      0.758320000000     0.317480000000     0.238410000000     0.0567587  
H19      H      0.843310000000     0.332830000000     0.236740000000     0.0520138  
H20      H      0.699950000000     0.188350000000     0.317340000000     0.0532196  
H21      H      0.782430000000     0.248030000000     0.356890000000     0.052439   
H22      H      0.787040000000     0.214250000000     0.309130000000     0.0447054  
H23      H      0.759780000000     0.272240000000     0.199220000000     0.0524404  
H24      H      0.821580000000     0.262660000000     0.240420000000     0.0444966  
H25      H      0.504850000000     0.078220000000     0.358700000000     0.0580819  
H26      H      0.456600000000     0.984280000000     0.287880000000     0.0587717  
H27      H      0.370860000000     0.931480000000     0.312180000000     0.0523434  
H28      H      0.482170000000     0.122610000000     0.345280000000     0.0527246  
H29      H      0.435670000000     0.056450000000     0.407460000000     0.0528969  
H30      H      0.397290000000     0.058150000000     0.363620000000     0.0442805  
H31      H      0.419360000000     0.999900000000     0.252390000000     0.0532375  
H32      H      0.360960000000     0.987630000000     0.309460000000     0.0440699  
H33      H      0.541950000000     0.076170000000     0.542410000000     0.0564396  
H34      H      0.505040000000     0.985140000000     0.109660000000     0.0564633  
H35      H      0.534700000000     0.928130000000     0.080660000000     0.052965   
H36      H      0.607230000000     0.121970000000     0.551930000000     0.0529221  
H37      H      0.589640000000     0.058250000000     0.488480000000     0.0530263  
H38      H      0.631050000000     0.057630000000     0.529910000000     0.0450734  
H39      H      0.556860000000     0.994470000000     0.142940000000     0.0536203  
H40      H      0.598930000000     0.981270000000     0.082050000000     0.0448875  
H41      H      0.933090000000     0.409150000000     0.574300000000     0.0449023  
H42      H      0.995490000000     0.396080000000     0.534680000000     0.0450202  
H43      H      0.999000000000     0.421460000000     0.459490000000     0.0531673  
H44      H      0.949690000000     0.472970000000     0.597450000000     0.0524824  
H45      H      0.895170000000     0.447880000000     0.529360000000     0.0530881  
H46      H      0.952650000000     0.510200000000     0.525610000000     0.0570269  
H47      H      0.058000000000     0.450820000000     0.525860000000     0.0532937  
H48      H      0.029260000000     0.490840000000     0.472590000000     0.0560351  
H49      H      0.008240000000     0.667260000000     0.246610000000     0.0450966  
H50      H      0.072930000000     0.668500000000     0.293920000000     0.0445441  
H51      H      0.047040000000     0.584510000000     0.329400000000     0.0528218  
H52      H      0.997300000000     0.638690000000     0.192540000000     0.0533964  
H53      H      0.932820000000     0.582430000000     0.251490000000     0.0526685  
H54      H      0.959420000000     0.549570000000     0.221260000000     0.0558581  
H55      H      0.113110000000     0.644210000000     0.274440000000     0.0514001  
H56      H      0.045360000000     0.552530000000     0.278640000000     0.057304   
H57      H      0.284960000000     0.788870000000     0.567870000000     0.054931   
H58      H      0.267110000000     0.709000000000     0.501950000000     0.0550084  
H59      H      0.183600000000     0.679510000000     0.471420000000     0.0521918  
H60      H      0.299240000000     0.851660000000     0.544350000000     0.053947   
H61      H      0.209310000000     0.796410000000     0.569940000000     0.0531455  
H62      H      0.215800000000     0.814010000000     0.512780000000     0.0461711  
H63      H      0.273570000000     0.733930000000     0.447080000000     0.0542209  
H64      H      0.201540000000     0.746610000000     0.455860000000     0.0457033  
H65      H      0.533700000000     0.641610000000     0.058230000000     0.0455452  
H66      H      0.611580000000     0.658880000000     0.095740000000     0.0458314  
H67      H      0.593150000000     0.625020000000     0.169490000000     0.0534161  
H68      H      0.494440000000     0.578700000000     0.031710000000     0.0523673  
H69      H      0.459160000000     0.591080000000     0.102460000000     0.0531358  
H70      H      0.466780000000     0.533590000000     0.102280000000     0.0557481  
H71      H      0.628130000000     0.607550000000     0.099490000000     0.0535722  
H72      H      0.561270000000     0.557240000000     0.151220000000     0.0540809  
H73      H      0.359720000000     0.396040000000     0.402130000000     0.0445487  
H74      H      0.403210000000     0.371340000000     0.349150000000     0.0443834  
H75      H      0.456500000000     0.443170000000     0.300980000000     0.0518281  
H76      H      0.390610000000     0.432000000000     0.451190000000     0.0529619  
H77      H      0.378730000000     0.485720000000     0.389720000000     0.052672   
H78      H      0.440790000000     0.513100000000     0.411420000000     0.0569592  
H79      H      0.466480000000     0.385550000000     0.358870000000     0.0521991  
H80      H      0.500160000000     0.479210000000     0.343860000000     0.0575504  
H81      H      0.586400000000     0.835730000000     0.322450000000     0.0449983  
H82      H      0.578600000000     0.785840000000     0.389620000000     0.0449396  
H83      H      0.508140000000     0.772300000000     0.434030000000     0.0528936  
H84      H      0.548130000000     0.802910000000     0.275320000000     0.0526223  
H85      H      0.522480000000     0.860610000000     0.318880000000     0.053589   
H86      H      0.473590000000     0.793110000000     0.311010000000     0.0565447  
H87      H      0.535490000000     0.715280000000     0.392460000000     0.0523982  
H88      H      0.463650000000     0.729020000000     0.394120000000     0.0567925  
H89      H      0.284090000000     0.649000000000     0.249770000000     0.0500468  
H90      H      0.238710000000     0.545400000000     0.250240000000     0.0488691  
H91      H      0.207760000000     0.514330000000     0.176780000000     0.053881   
H92      H      0.348780000000     0.685390000000     0.232950000000     0.0543181  
H93      H      0.292260000000     0.686120000000     0.175630000000     0.0545677  
H94      H      0.324540000000     0.652270000000     0.157200000000     0.0520046  
H95      H      0.271810000000     0.513660000000     0.229010000000     0.053471   
H96      H      0.270420000000     0.544340000000     0.155220000000     0.0507368  
H97      H      0.603900000000     0.345850000000     0.618920000000     0.0545593  
H98      H      0.519200000000     0.263220000000     0.071340000000     0.0532374  
H99      H      0.459270000000     0.207100000000     0.626930000000     0.0528627  
H100     H      0.592500000000     0.397540000000     0.637970000000     0.0536685  
H101     H      0.582980000000     0.333170000000     0.697000000000     0.0527162  
H102     H      0.526920000000     0.336710000000     0.687430000000     0.0458518  
H103     H      0.467480000000     0.275470000000     0.070650000000     0.0532915  
H104     H      0.453920000000     0.262000000000     0.648110000000     0.0459391  
H105     H      0.759020000000     0.503950000000     0.961010000000     0.0527906  
H106     H      0.689240000000     0.400760000000     0.924000000000     0.054654   
H107     H      0.628260000000     0.410450000000     0.878470000000     0.0547133  
H108     H      0.800670000000     0.549550000000     0.920660000000     0.0538272  
H109     H      0.725720000000     0.560810000000     0.940510000000     0.0533252  
H110     H      0.733170000000     0.552500000000     0.883020000000     0.0472854  
H111     H      0.700560000000     0.395740000000     0.866880000000     0.0547149  
H112     H      0.678290000000     0.462900000000     0.847520000000     0.0474491  
H113     H      0.712930000000     0.255620000000     0.824900000000     0.0569997  
H114     H      0.756950000000     0.317370000000     0.738190000000     0.0566926  
H115     H      0.841930000000     0.332660000000     0.736290000000     0.0520471  
H116     H      0.698610000000     0.188230000000     0.816990000000     0.0532627  
H117     H      0.781160000000     0.247770000000     0.856440000000     0.0524393  
H118     H      0.785660000000     0.214000000000     0.808630000000     0.0447248  
H119     H      0.758370000000     0.272260000000     0.698830000000     0.0524534  
H120     H      0.820160000000     0.262480000000     0.739890000000     0.0445342  
H121     H      0.503370000000     0.076740000000     0.858110000000     0.0580714  
H122     H      0.456200000000     0.983000000000     0.787290000000     0.0587066  
H123     H      0.370360000000     0.929540000000     0.811170000000     0.0523783  
H124     H      0.480410000000     0.120850000000     0.844560000000     0.0527548  
H125     H      0.433800000000     0.054510000000     0.906550000000     0.0529151  
H126     H      0.395530000000     0.055890000000     0.862470000000     0.0442958  
H127     H      0.418840000000     0.998140000000     0.751520000000     0.0533169  
H128     H      0.359920000000     0.985330000000     0.808270000000     0.0441212  
H129     H      0.540750000000     0.076090000000     0.043790000000     0.0562668  
H130     H      0.505470000000     0.984270000000     0.608160000000     0.0567863  
H131     H      0.537630000000     0.928980000000     0.579960000000     0.0526972  
H132     H      0.606860000000     0.121190000000     0.052020000000     0.0527739  
H133     H      0.587340000000     0.057410000000     0.988870000000     0.0531507  
H134     H      0.629060000000     0.056300000000     0.029740000000     0.045196   
H135     H      0.556950000000     0.994550000000     0.642370000000     0.053691   
H136     H      0.601080000000     0.982550000000     0.582010000000     0.0445794  
H137     H      0.931720000000     0.407540000000     0.074180000000     0.0448375  
H138     H      0.993990000000     0.394360000000     0.034560000000     0.0449358  
H139     H      0.997530000000     0.419730000000     0.959380000000     0.053211   
H140     H      0.948380000000     0.471380000000     0.097340000000     0.0524438  
H141     H      0.893830000000     0.446250000000     0.029210000000     0.0530908  
H142     H      0.951260000000     0.508620000000     0.025550000000     0.0571222  
H143     H      0.056560000000     0.449000000000     0.025760000000     0.0532308  
H144     H      0.028000000000     0.489130000000     0.972450000000     0.0562011  
H145     H      0.009260000000     0.667630000000     0.747800000000     0.0451215  
H146     H      0.073500000000     0.667870000000     0.795130000000     0.0445512  
H147     H      0.047050000000     0.583280000000     0.829810000000     0.0528513  
H148     H      0.998550000000     0.639770000000     0.693480000000     0.0533932  
H149     H      0.933570000000     0.582920000000     0.751860000000     0.0526816  
H150     H      0.960210000000     0.550250000000     0.721410000000     0.0558049  
H151     H      0.113550000000     0.643530000000     0.775420000000     0.051388   
H152     H      0.045420000000     0.551940000000     0.778710000000     0.057256   
H153     H      0.283240000000     0.787640000000     0.066910000000     0.0549752  
H154     H      0.266200000000     0.707440000000     0.001470000000     0.0550146  
H155     H      0.182730000000     0.677240000000     0.970580000000     0.0521908  
H156     H      0.297300000000     0.850160000000     0.042950000000     0.0539429  
H157     H      0.207300000000     0.794660000000     0.068240000000     0.0531475  
H158     H      0.214000000000     0.811830000000     0.010970000000     0.0461432  
H159     H      0.272780000000     0.732010000000     0.946460000000     0.0541864  
H160     H      0.200360000000     0.744110000000     0.954560000000     0.0456671  
H161     H      0.534420000000     0.641760000000     0.558620000000     0.0455731  
H162     H      0.612130000000     0.658400000000     0.596060000000     0.0458198  
H163     H      0.593520000000     0.624370000000     0.669750000000     0.0534229  
H164     H      0.494880000000     0.579010000000     0.531970000000     0.0523897  
H165     H      0.459790000000     0.591470000000     0.602800000000     0.0531221  
H166     H      0.467000000000     0.533720000000     0.602450000000     0.0557665  
H167     H      0.628270000000     0.606740000000     0.599660000000     0.05358    
H168     H      0.561330000000     0.556640000000     0.651370000000     0.0541328  
H169     H      0.359950000000     0.395540000000     0.902470000000     0.0445171  
H170     H      0.403370000000     0.370770000000     0.849560000000     0.0443377  
H171     H      0.456500000000     0.442490000000     0.801250000000     0.0517665  
H172     H      0.390850000000     0.431600000000     0.951500000000     0.0529559  
H173     H      0.378840000000     0.485130000000     0.889900000000     0.0526185  
H174     H      0.440890000000     0.512650000000     0.911660000000     0.0570126  
H175     H      0.466660000000     0.385010000000     0.859230000000     0.0522112  
H176     H      0.500320000000     0.478600000000     0.844010000000     0.0575781  
H177     H      0.586920000000     0.835370000000     0.823250000000     0.044923   
H178     H      0.578740000000     0.785350000000     0.890410000000     0.0448843  
H179     H      0.508000000000     0.771690000000     0.934450000000     0.0528621  
H180     H      0.549000000000     0.802640000000     0.775930000000     0.0525768  
H181     H      0.523000000000     0.860190000000     0.819310000000     0.0535548  
H182     H      0.474190000000     0.792710000000     0.811170000000     0.0566178  
H183     H      0.535660000000     0.714770000000     0.893090000000     0.0523636  
H184     H      0.463770000000     0.728390000000     0.894410000000     0.0568487  
H185     H      0.284790000000     0.649020000000     0.750500000000     0.0500423  
H186     H      0.239350000000     0.545420000000     0.750290000000     0.048877   
H187     H      0.208780000000     0.515050000000     0.676610000000     0.0538831  
H188     H      0.349570000000     0.685530000000     0.733930000000     0.0543036  
H189     H      0.293350000000     0.686850000000     0.676580000000     0.0545637  
H190     H      0.325690000000     0.653120000000     0.657960000000     0.0519975  
H191     H      0.272520000000     0.513830000000     0.728900000000     0.0534715  
H192     H      0.271560000000     0.545250000000     0.655290000000     0.0507283  
N1       N      0.525380000000     0.267960000000     0.163160000000    -0.152629   
N2       N      0.537290000000     0.338860000000     0.096130000000    -0.151578   
N3       N      0.672620000000     0.482880000000     0.413190000000    -0.151579   
N4       N      0.754260000000     0.467240000000     0.400100000000    -0.150863   
N5       N      0.814210000000     0.296420000000     0.299440000000    -0.152226   
N6       N      0.720800000000     0.237130000000     0.259400000000    -0.149989   
N7       N      0.406720000000     0.990670000000     0.362390000000    -0.151956   
N8       N      0.466410000000     0.061250000000     0.298020000000    -0.149768   
N9       N      0.558090000000     0.990260000000     0.531520000000    -0.151835   
N10      N      0.570870000000     0.059760000000     0.100380000000    -0.150141   
N11      N      0.951500000000     0.448920000000     0.486900000000    -0.150034   
N12      N      0.008450000000     0.468530000000     0.562730000000    -0.1515     
N13      N      0.984780000000     0.567050000000     0.286890000000    -0.150341   
N14      N      0.056900000000     0.638360000000     0.229210000000    -0.151878   
N15      N      0.194020000000     0.733320000000     0.524330000000    -0.152619   
N16      N      0.294380000000     0.791990000000     0.499020000000    -0.150924   
N17      N      0.519270000000     0.596320000000     0.142480000000    -0.150562   
N18      N      0.560550000000     0.587350000000     0.063740000000    -0.151134   
N19      N      0.432680000000     0.482060000000     0.347200000000    -0.149985   
N20      N      0.434620000000     0.412420000000     0.408470000000    -0.150874   
N21      N      0.500870000000     0.810450000000     0.376110000000    -0.150082   
N22      N      0.537420000000     0.753130000000     0.331250000000    -0.152101   
N23      N      0.247710000000     0.600110000000     0.171300000000    -0.151537   
N24      N      0.314050000000     0.599470000000     0.233270000000    -0.151929   
N25      N      0.523090000000     0.266510000000     0.662930000000    -0.152624   
N26      N      0.535370000000     0.337920000000     0.596240000000    -0.151517   
N27      N      0.673270000000     0.484710000000     0.912680000000    -0.151597   
N28      N      0.754370000000     0.468220000000     0.899480000000    -0.150803   
N29      N      0.812920000000     0.296190000000     0.798990000000    -0.152207   
N30      N      0.719460000000     0.236950000000     0.759010000000    -0.150022   
N31      N      0.405540000000     0.988780000000     0.861470000000    -0.151936   
N32      N      0.465250000000     0.059680000000     0.797280000000    -0.149729   
N33      N      0.555790000000     0.989500000000     0.032020000000    -0.151709   
N34      N      0.570570000000     0.059720000000     0.599760000000    -0.150048   
N35      N      0.950230000000     0.447470000000     0.986750000000    -0.149948   
N36      N      0.007090000000     0.466870000000     0.062590000000    -0.151504   
N37      N      0.985100000000     0.566830000000     0.787210000000    -0.150393   
N38      N      0.057770000000     0.638640000000     0.730150000000    -0.151876   
N39      N      0.192600000000     0.731340000000     0.023080000000    -0.152596   
N40      N      0.293040000000     0.790320000000     0.998120000000    -0.150904   
N41      N      0.519700000000     0.596140000000     0.642770000000    -0.150566   
N42      N      0.560800000000     0.587080000000     0.563940000000    -0.151108   
N43      N      0.432890000000     0.481550000000     0.847470000000    -0.149994   
N44      N      0.434870000000     0.412010000000     0.908800000000    -0.150801   
N45      N      0.500950000000     0.809830000000     0.876430000000    -0.150058   
N46      N      0.537930000000     0.752730000000     0.831850000000    -0.152119   
N47      N      0.248790000000     0.600880000000     0.671710000000    -0.151515   
N48      N      0.314780000000     0.599600000000     0.733700000000    -0.151912   
O1       O      0.504680000000     0.705530000000     0.267580000000    -0.247421   
O2       O      0.419190000000     0.550730000000     0.327590000000    -0.245119   
O3       O      0.523020000000     0.614030000000     0.216610000000    -0.247082   
O4       O      0.398520000000     0.644740000000     0.248240000000    -0.251303   
O5       O      0.361250000000     0.559250000000     0.246950000000    -0.248063   
O6       O      0.454040000000     0.592130000000     0.182770000000    -0.251706   
O7       O      0.496610000000     0.661750000000     0.326720000000    -0.250242   
O8       O      0.461520000000     0.530390000000     0.283300000000    -0.249262   
O9       O      0.092170000000     0.528940000000     0.574330000000    -0.244157   
O10      O      0.159990000000     0.701650000000     0.091930000000    -0.250018   
O11      O      0.165660000000     0.560160000000     0.146990000000    -0.246767   
O12      O      0.115470000000     0.621900000000     0.197210000000    -0.251842   
O13      O      0.063950000000     0.630450000000     0.154750000000    -0.24295    
O14      O      0.209860000000     0.645600000000     0.144970000000    -0.252289   
O15      O      0.037380000000     0.541970000000     0.607360000000    -0.249106   
O16      O      0.152420000000     0.645220000000     0.544860000000    -0.253431   
O17      O      0.477010000000     0.874250000000     0.379940000000    -0.246761   
O18      O      0.436070000000     0.974300000000     0.426460000000    -0.246186   
O19      O      0.516190000000     0.974900000000     0.465930000000    -0.247272   
O20      O      0.357380000000     0.810790000000     0.449220000000    -0.250696   
O21      O      0.371040000000     0.869610000000     0.498250000000    -0.250104   
O22      O      0.486740000000     0.911670000000     0.513540000000    -0.247271   
O23      O      0.467920000000     0.827760000000     0.437660000000    -0.248673   
O24      O      0.406550000000     0.912760000000     0.377360000000    -0.247203   
O25      O      0.839220000000     0.497130000000     0.395490000000    -0.24583    
O26      O      0.938910000000     0.434000000000     0.412530000000    -0.244829   
O27      O      0.902890000000     0.509580000000     0.307600000000    -0.247595   
O28      O      0.860680000000     0.387850000000     0.302560000000    -0.251315   
O29      O      0.832560000000     0.345380000000     0.363140000000    -0.248985   
O30      O      0.961910000000     0.509840000000     0.345590000000    -0.248991   
O31      O      0.787980000000     0.418330000000     0.371920000000    -0.25162    
O32      O      0.888540000000     0.451620000000     0.448090000000    -0.248794   
O33      O      0.508550000000     0.362520000000     0.534440000000    -0.252648   
O34      O      0.593850000000     0.533770000000     0.046570000000    -0.242958   
O35      O      0.468180000000     0.435830000000     0.477930000000    -0.238445   
O36      O      0.595130000000     0.429660000000     0.443760000000    -0.245933   
O37      O      0.637400000000     0.510310000000     0.466800000000    -0.247128   
O38      O      0.510400000000     0.421400000000     0.428850000000    -0.244155   
O39      O      0.576530000000     0.422750000000     0.066140000000    -0.254199   
O40      O      0.524730000000     0.517100000000     0.015510000000    -0.244391   
O41      O      0.533060000000     0.141720000000     0.276040000000    -0.245488   
O42      O      0.635950000000     0.176880000000     0.261780000000    -0.246852   
O43      O      0.579200000000     0.247650000000     0.199610000000    -0.252185   
O44      O      0.566170000000     0.077860000000     0.173090000000    -0.245741   
O45      O      0.586080000000     0.141150000000     0.126670000000    -0.247952   
O46      O      0.516720000000     0.184340000000     0.165790000000    -0.251768   
O47      O      0.500440000000     0.078190000000     0.228800000000    -0.244157   
O48      O      0.666280000000     0.219450000000     0.201610000000    -0.248625   
O49      O      0.505440000000     0.705260000000     0.768090000000    -0.247451   
O50      O      0.419560000000     0.550330000000     0.827880000000    -0.245219   
O51      O      0.523490000000     0.613580000000     0.716950000000    -0.247066   
O52      O      0.399200000000     0.644670000000     0.748890000000    -0.251353   
O53      O      0.361880000000     0.559190000000     0.747120000000    -0.248001   
O54      O      0.454610000000     0.592180000000     0.683130000000    -0.251647   
O55      O      0.497060000000     0.661350000000     0.827220000000    -0.250243   
O56      O      0.461950000000     0.530010000000     0.783650000000    -0.249238   
O57      O      0.090840000000     0.527380000000     0.073980000000    -0.244069   
O58      O      0.161630000000     0.703220000000     0.593170000000    -0.250001   
O59      O      0.166820000000     0.561190000000     0.647220000000    -0.246691   
O60      O      0.116350000000     0.622300000000     0.698000000000    -0.251773   
O61      O      0.065220000000     0.631650000000     0.655620000000    -0.242985   
O62      O      0.211030000000     0.646650000000     0.645770000000    -0.252176   
O63      O      0.036110000000     0.540510000000     0.107010000000    -0.249016   
O64      O      0.151310000000     0.643400000000     0.044070000000    -0.253378   
O65      O      0.476720000000     0.873350000000     0.879980000000    -0.24684    
O66      O      0.434700000000     0.972700000000     0.925770000000    -0.246077   
O67      O      0.514600000000     0.973850000000     0.966030000000    -0.247158   
O68      O      0.356450000000     0.809170000000     0.948760000000    -0.250752   
O69      O      0.369510000000     0.868160000000     0.997450000000    -0.250113   
O70      O      0.485090000000     0.910530000000     0.013560000000    -0.247162   
O71      O      0.467300000000     0.826760000000     0.937710000000    -0.248572   
O72      O      0.405680000000     0.911080000000     0.876730000000    -0.247106   
O73      O      0.839190000000     0.497160000000     0.895620000000    -0.245803   
O74      O      0.937950000000     0.433090000000     0.912300000000    -0.244736   
O75      O      0.903020000000     0.509720000000     0.807610000000    -0.247694   
O76      O      0.859790000000     0.387590000000     0.802200000000    -0.251249   
O77      O      0.831530000000     0.345080000000     0.862750000000    -0.249127   
O78      O      0.961620000000     0.509090000000     0.845580000000    -0.248959   
O79      O      0.787630000000     0.419010000000     0.870980000000    -0.251569   
O80      O      0.887550000000     0.450660000000     0.947880000000    -0.248596   
O81      O      0.509620000000     0.363270000000     0.034770000000    -0.252885   
O82      O      0.593620000000     0.533110000000     0.546600000000    -0.242918   
O83      O      0.468750000000     0.436060000000     0.978110000000    -0.238202   
O84      O      0.595640000000     0.431180000000     0.942890000000    -0.245725   
O85      O      0.638180000000     0.511280000000     0.967050000000    -0.247135   
O86      O      0.510750000000     0.421190000000     0.929100000000    -0.243695   
O87      O      0.574840000000     0.422010000000     0.566610000000    -0.254007   
O88      O      0.524590000000     0.516950000000     0.515620000000    -0.244462   
O89      O      0.531510000000     0.140500000000     0.775460000000    -0.245459   
O90      O      0.634680000000     0.176430000000     0.761330000000    -0.246975   
O91      O      0.576990000000     0.246530000000     0.699620000000    -0.252296   
O92      O      0.565050000000     0.077340000000     0.672430000000    -0.245485   
O93      O      0.585460000000     0.140940000000     0.626220000000    -0.247772   
O94      O      0.515290000000     0.183250000000     0.665020000000    -0.251707   
O95      O      0.499500000000     0.077030000000     0.728130000000    -0.243913   
O96      O      0.664930000000     0.219120000000     0.701200000000    -0.248695   


