data_structure

_audit_creation_method RASPA-1.0
_audit_creation_date 2023-5-22
_audit_author_name 'Poobodin Mano'

_cell_length_a    48.2562
_cell_length_b    47.1993
_cell_length_c    46.484
_cell_angle_alpha 89.9999
_cell_angle_beta  89.9999
_cell_angle_gamma 90.0001
_cell_volume      105875

_symmetry_cell_setting          triclinic
_symmetry_space_group_name_Hall 'P 1'
_symmetry_space_group_name_H-M  'P 1'
_symmetry_Int_Tables_number     1

_symmetry_equiv_pos_as_xyz 'x,y,z'

loop_
_atom_site_label
_atom_site_type_symbol
_atom_site_fract_x
_atom_site_fract_y
_atom_site_fract_z
_atom_site_charge
C1       C      0.117430000000     0.292360000000     0.923840000000     0.342813   
C2       C      0.139590000000     0.355300000000     0.001760000000     0.338427   
C3       C      0.181690000000     0.370870000000     0.914350000000     0.34201    
C4       C      0.085860000000     0.385330000000     0.921900000000     0.339873   
C5       C      0.219560000000     0.406490000000     0.180730000000     0.339614   
C6       C      0.149980000000     0.470930000000     0.137440000000     0.3396     
C7       C      0.156400000000     0.378480000000     0.113270000000     0.341109   
C8       C      0.131050000000     0.412200000000     0.213880000000     0.34015    
C9       C      0.135840000000     0.769550000000     0.125160000000     0.338252   
C10      C      0.136960000000     0.851210000000     0.056350000000     0.337115   
C11      C      0.077050000000     0.843450000000     0.135810000000     0.341243   
C12      C      0.181730000000     0.851820000000     0.138700000000     0.338427   
C13      C      0.015910000000     0.620060000000     0.166770000000     0.340503   
C14      C      0.077650000000     0.609440000000     0.243320000000     0.340209   
C15      C      0.102620000000     0.568240000000     0.158900000000     0.341901   
C16      C      0.099350000000     0.668520000000     0.161110000000     0.338597   
C17      C      0.075510000000     0.405820000000     0.313060000000     0.339494   
C18      C      0.017930000000     0.391350000000     0.396500000000     0.340728   
C19      C      0.098570000000     0.341030000000     0.386980000000     0.337367   
C20      C      0.104220000000     0.442620000000     0.397920000000     0.34154    
C21      C      0.361590000000     0.274860000000     0.128920000000     0.33759    
C22      C      0.357330000000     0.347980000000     0.066430000000     0.340978   
C23      C      0.316670000000     0.363550000000     0.154160000000     0.337182   
C24      C      0.412870000000     0.354020000000     0.157200000000     0.341818   
C25      C      0.848950000000     0.655240000000     0.063170000000     0.340712   
C26      C      0.864000000000     0.715210000000     0.145050000000     0.342124   
C27      C      0.812570000000     0.628080000000     0.149550000000     0.34257    
C28      C      0.909310000000     0.627520000000     0.137160000000     0.340377   
C29      C      0.715900000000     0.093130000000     0.915830000000     0.340928   
C30      C      0.656080000000     0.015260000000     0.905410000000     0.337952   
C31      C      0.629360000000     0.094640000000     0.963700000000     0.337825   
C32      C      0.629000000000     0.096510000000     0.862710000000     0.343251   
C33      C      0.583240000000     0.126420000000     0.763820000000     0.336343   
C34      C      0.521370000000     0.129710000000     0.680380000000     0.336659   
C35      C      0.604040000000     0.166840000000     0.679640000000     0.334209   
C36      C      0.597950000000     0.061760000000     0.690860000000     0.341441   
C37      C      0.351660000000     0.232660000000     0.621720000000     0.339946   
C38      C      0.387120000000     0.157500000000     0.553330000000     0.340497   
C39      C      0.422270000000     0.167980000000     0.641140000000     0.339409   
C40      C      0.322140000000     0.141120000000     0.615590000000     0.340581   
C41      C      0.100650000000     0.874150000000     0.747050000000     0.339273   
C42      C      0.019020000000     0.900710000000     0.683750000000     0.339521   
C43      C      0.103470000000     0.938640000000     0.676300000000     0.339807   
C44      C      0.084320000000     0.833490000000     0.660280000000     0.340218   
C45      C      0.633700000000     0.954410000000     0.665780000000     0.337498   
C46      C      0.709600000000     0.883070000000     0.656680000000     0.337322   
C47      C      0.634820000000     0.872360000000     0.717530000000     0.340453   
C48      C      0.627990000000     0.874790000000     0.609800000000     0.342531   
C49      C      0.606330000000     0.841950000000     0.822450000000     0.339487   
C50      C      0.542140000000     0.885660000000     0.893510000000     0.339366   
C51      C      0.599630000000     0.806840000000     0.910460000000     0.341939   
C52      C      0.633320000000     0.906190000000     0.889820000000     0.340902   
C53      C      0.900210000000     0.878200000000     0.247210000000     0.338628   
C54      C      0.975110000000     0.877320000000     0.169260000000     0.339645   
C55      C      0.901850000000     0.820510000000     0.169830000000     0.339142   
C56      C      0.896780000000     0.929400000000     0.167120000000     0.339482   
C57      C      0.523380000000     0.614120000000     0.389390000000     0.343172   
C58      C      0.580130000000     0.594910000000     0.308940000000     0.340004   
C59      C      0.612960000000     0.653440000000     0.386040000000     0.338994   
C60      C      0.604240000000     0.554240000000     0.393960000000     0.342982   
C61      C      0.644480000000     0.453680000000     0.423040000000     0.337338   
C62      C      0.714600000000     0.386130000000     0.411030000000     0.34067    
C63      C      0.634850000000     0.360780000000     0.455820000000     0.339818   
C64      C      0.632810000000     0.384670000000     0.352390000000     0.34289    
C65      C      0.719900000000     0.576610000000     0.177980000000     0.339684   
C66      C      0.651590000000     0.500750000000     0.153100000000     0.338775   
C67      C      0.630500000000     0.573280000000     0.209030000000     0.338485   
C68      C      0.657370000000     0.582900000000     0.103160000000     0.339898   
C69      C      0.522200000000     0.355130000000     0.177820000000     0.33763    
C70      C      0.586580000000     0.368140000000     0.247850000000     0.34015    
C71      C      0.603870000000     0.301510000000     0.165350000000     0.3407     
C72      C      0.614690000000     0.395630000000     0.157950000000     0.339421   
C73      C      0.854690000000     0.963410000000     0.397270000000     0.337926   
C74      C      0.784260000000     0.882440000000     0.405260000000     0.339865   
C75      C      0.861150000000     0.878700000000     0.354710000000     0.340295   
C76      C      0.859570000000     0.891890000000     0.463160000000     0.339976   
C77      C      0.414030000000     0.899520000000     0.304920000000     0.340788   
C78      C      0.472970000000     0.877180000000     0.387680000000     0.342713   
C79      C      0.395840000000     0.937520000000     0.393200000000     0.342664   
C80      C      0.383830000000     0.838570000000     0.377440000000     0.339604   
C81      C      0.625910000000     0.836100000000     0.501010000000     0.337927   
C82      C      0.626450000000     0.760140000000     0.422660000000     0.337049   
C83      C      0.573750000000     0.835950000000     0.419470000000     0.339349   
C84      C      0.680340000000     0.840880000000     0.426500000000     0.338585   
C85      C      0.466540000000     0.368370000000     0.670880000000     0.341853   
C86      C      0.396750000000     0.388890000000     0.742430000000     0.341062   
C87      C      0.389710000000     0.431340000000     0.653030000000     0.342989   
C88      C      0.377880000000     0.333440000000     0.659660000000     0.338353   
C89      C      0.628590000000     0.335880000000     0.567390000000     0.340293   
C90      C      0.638420000000     0.266930000000     0.642230000000     0.339335   
C91      C      0.672730000000     0.359450000000     0.650620000000     0.33876    
C92      C      0.573050000000     0.335400000000     0.652830000000     0.342738   
C93      C      0.136190000000     0.656990000000     0.559580000000     0.340765   
C94      C      0.113850000000     0.725790000000     0.632940000000     0.341192   
C95      C      0.081630000000     0.634360000000     0.642210000000     0.338917   
C96      C      0.176550000000     0.647850000000     0.650110000000     0.342676   
C97      C      0.151790000000     0.540710000000     0.418590000000     0.33908    
C98      C      0.217710000000     0.612600000000     0.377460000000     0.339434   
C99      C      0.130150000000     0.601740000000     0.344990000000     0.339382   
C100     C      0.155520000000     0.630640000000     0.448010000000     0.340726   
C101     C      0.358640000000     0.658110000000     0.490570000000     0.33739    
C102     C      0.369120000000     0.732130000000     0.412800000000     0.337908   
C103     C      0.421040000000     0.655060000000     0.414790000000     0.341091   
C104     C      0.316370000000     0.652070000000     0.405370000000     0.338316   
C105     C      0.356300000000     0.538990000000     0.654850000000     0.337002   
C106     C      0.282510000000     0.614360000000     0.653160000000     0.336703   
C107     C      0.361240000000     0.614890000000     0.710150000000     0.340799   
C108     C      0.358600000000     0.619030000000     0.599660000000     0.340629   
C109     C      0.236820000000     0.909050000000     0.893430000000     0.33696    
C110     C      0.163040000000     0.981110000000     0.899140000000     0.338709   
C111     C      0.150140000000     0.903700000000     0.845950000000     0.338557   
C112     C      0.167180000000     0.894840000000     0.952200000000     0.340693   
C113     C      0.282160000000     0.405470000000     0.887200000000     0.338928   
C114     C      0.354560000000     0.467880000000     0.929640000000     0.339168   
C115     C      0.344400000000     0.375860000000     0.955180000000     0.341265   
C116     C      0.370020000000     0.407050000000     0.854130000000     0.341916   
C117     C      0.384750000000     0.783710000000     0.913500000000     0.342844   
C118     C      0.369650000000     0.849210000000     0.989300000000     0.33838    
C119     C      0.437360000000     0.867020000000     0.917320000000     0.337315   
C120     C      0.341070000000     0.874540000000     0.899030000000     0.344292   
C121     C      0.403290000000     0.608850000000     0.817300000000     0.33704    
C122     C      0.479090000000     0.608840000000     0.891370000000     0.338123   
C123     C      0.410930000000     0.673530000000     0.892770000000     0.340981   
C124     C      0.397060000000     0.566550000000     0.903110000000     0.337878   
C125     C      0.880490000000     0.210770000000     0.904690000000     0.337086   
C126     C      0.876890000000     0.139820000000     0.982260000000     0.339383   
C127     C      0.820040000000     0.131900000000     0.904040000000     0.341397   
C128     C      0.925700000000     0.129260000000     0.901390000000     0.340295   
C129     C      0.648750000000     0.628600000000     0.996470000000     0.342028   
C130     C      0.623490000000     0.696730000000     0.926000000000     0.342055   
C131     C      0.677970000000     0.618180000000     0.899520000000     0.341675   
C132     C      0.584490000000     0.606090000000     0.922260000000     0.342902   
C133     C      0.863740000000     0.854200000000     0.572710000000     0.340514   
C134     C      0.884090000000     0.780650000000     0.644570000000     0.338153   
C135     C      0.918390000000     0.869070000000     0.652230000000     0.338607   
C136     C      0.816340000000     0.851050000000     0.657630000000     0.341661   
C137     C      0.983150000000     0.602480000000     0.678540000000     0.337966   
C138     C      0.911360000000     0.615470000000     0.749050000000     0.33963    
C139     C      0.919950000000     0.673760000000     0.664680000000     0.342607   
C140     C      0.890070000000     0.573650000000     0.666640000000     0.338111   
C141     C      0.783160000000     0.591980000000     0.889680000000     0.3362     
C142     C      0.852980000000     0.522330000000     0.901980000000     0.340034   
C143     C      0.875780000000     0.605390000000     0.857780000000     0.34036    
C144     C      0.846910000000     0.605730000000     0.959680000000     0.343685   
C145     C      0.982680000000     0.386900000000     0.884920000000     0.339027   
C146     C      0.917380000000     0.388310000000     0.806690000000     0.340711   
C147     C      0.913180000000     0.319030000000     0.882800000000     0.340701   
C148     C      0.887070000000     0.416340000000     0.892380000000     0.342401   
C149     C      0.881530000000     0.281240000000     0.429040000000     0.343436   
C150     C      0.857780000000     0.337040000000     0.511010000000     0.339568   
C151     C      0.916700000000     0.373900000000     0.438430000000     0.340062   
C152     C      0.822490000000     0.363690000000     0.422970000000     0.344494   
C153     C      0.766410000000     0.412050000000     0.675650000000     0.340744   
C154     C      0.834530000000     0.480240000000     0.645270000000     0.340984   
C155     C      0.856690000000     0.410360000000     0.712150000000     0.340253   
C156     C      0.835860000000     0.388840000000     0.610610000000     0.341054   
C157     C      0.280290000000     0.890380000000     0.167100000000     0.339756   
C158     C      0.345380000000     0.960970000000     0.121640000000     0.339832   
C159     C      0.365040000000     0.904430000000     0.201210000000     0.339167   
C160     C      0.344280000000     0.869800000000     0.099220000000     0.340476   
C161     C      0.961060000000     0.125630000000     0.367940000000     0.338426   
C162     C      0.885210000000     0.132260000000     0.291420000000     0.338035   
C163     C      0.883370000000     0.070780000000     0.364040000000     0.338653   
C164     C      0.887650000000     0.180120000000     0.374350000000     0.339946   
C165     C      0.100050000000     0.133960000000     0.791310000000     0.338632   
C166     C      0.032020000000     0.132730000000     0.867950000000     0.33766    
C167     C      0.116990000000     0.082310000000     0.870880000000     0.340016   
C168     C      0.106370000000     0.188480000000     0.874960000000     0.342303   
C169     C      0.122480000000     0.152170000000     0.479840000000     0.336377   
C170     C      0.124460000000     0.232010000000     0.410440000000     0.33839    
C171     C      0.170190000000     0.150010000000     0.399220000000     0.341111   
C172     C      0.064090000000     0.158400000000     0.400420000000     0.340594   
C173     C      0.215200000000     0.111970000000     0.631830000000     0.342004   
C174     C      0.154700000000     0.036620000000     0.652310000000     0.340171   
C175     C      0.126990000000     0.126050000000     0.681840000000     0.343781   
C176     C      0.127900000000     0.112740000000     0.587160000000     0.340688   
C177     C      0.846770000000     0.031220000000     0.158750000000     0.342558   
C178     C      0.767210000000     0.089790000000     0.140550000000     0.339144   
C179     C      0.846640000000     0.125910000000     0.186650000000     0.339454   
C180     C      0.845220000000     0.106350000000     0.087900000000     0.343758   
C181     C      0.592420000000     0.129140000000     0.063340000000     0.338579   
C182     C      0.630150000000     0.200030000000     0.128290000000     0.337979   
C183     C      0.560530000000     0.137230000000     0.155420000000     0.342898   
C184     C      0.658460000000     0.108460000000     0.130360000000     0.342325   
C185     C      0.352730000000     0.041780000000     0.396280000000     0.338127   
C186     C      0.274460000000     0.113880000000     0.406460000000     0.338209   
C187     C      0.355970000000     0.120000000000     0.451240000000     0.338455   
C188     C      0.343880000000     0.116570000000     0.341150000000     0.34101    
C189     C      0.451700000000     0.123150000000     0.167870000000     0.338611   
C190     C      0.379760000000     0.111730000000     0.232160000000     0.342671   
C191     C      0.366890000000     0.163900000000     0.143670000000     0.344284   
C192     C      0.375570000000     0.064750000000     0.142440000000     0.337466   
C193     C      0.331060000000     0.114720000000     0.289760000000    -0.0133286  
C194     C      0.374690000000     0.139100000000     0.304910000000    -0.0139109  
C195     C      0.347400000000     0.095360000000     0.269750000000    -0.0139106  
C196     C      0.391280000000     0.121200000000     0.283330000000    -0.0143264  
C197     C      0.525630000000     0.107160000000     0.179910000000    -0.0130779  
C198     C      0.518540000000     0.159190000000     0.176220000000    -0.0128657  
C199     C      0.498250000000     0.101650000000     0.164180000000    -0.0148435  
C200     C      0.491470000000     0.154950000000     0.159770000000    -0.0144802  
C201     C      0.722440000000     0.098840000000     0.164580000000    -0.0149023  
C202     C      0.725990000000     0.095100000000     0.109970000000    -0.0145601  
C203     C      0.693180000000     0.086240000000     0.162720000000    -0.0131799  
C204     C      0.697460000000     0.081300000000     0.109690000000    -0.0124838  
C205     C      0.129120000000     0.111800000000     0.512940000000    -0.0150371  
C206     C      0.124930000000     0.162020000000     0.532030000000    -0.0149761  
C207     C      0.111350000000     0.101490000000     0.538080000000    -0.0128164  
C208     C      0.107480000000     0.150660000000     0.557000000000    -0.0128145  
C209     C      0.201540000000     0.109650000000     0.388080000000    -0.0140854  
C210     C      0.219080000000     0.159430000000     0.387190000000    -0.0128665  
C211     C      0.224420000000     0.101530000000     0.409690000000    -0.0148211  
C212     C      0.240230000000     0.152500000000     0.410440000000    -0.0142508  
C213     C      0.131020000000     0.147480000000     0.751520000000    -0.0150792  
C214     C      0.088870000000     0.115840000000     0.742910000000    -0.015122   
C215     C      0.126310000000     0.160530000000     0.721850000000    -0.0120685  
C216     C      0.085690000000     0.129540000000     0.713240000000    -0.012333   
C217     C      0.895140000000     0.130850000000     0.239410000000    -0.0153003  
C218     C      0.845470000000     0.134850000000     0.258480000000    -0.0150375  
C219     C      0.885940000000     0.147630000000     0.212840000000    -0.0124207  
C220     C      0.838260000000     0.152140000000     0.231760000000    -0.0122113  
C221     C      0.014070000000     0.154800000000     0.410800000000    -0.0140648  
C222     C      0.032040000000     0.146710000000     0.360410000000    -0.0145155  
C223     C      0.995130000000     0.129130000000     0.407510000000    -0.0138911  
C224     C      0.011370000000     0.122210000000     0.356900000000    -0.0140703  
C225     C      0.388620000000     0.017570000000     0.125070000000    -0.0149341  
C226     C      0.337520000000     0.032120000000     0.131200000000    -0.0152111  
C227     C      0.379040000000     0.995880000000     0.102800000000    -0.0123755  
C228     C      0.330010000000     0.009460000000     0.108990000000    -0.0122118  
C229     C      0.889220000000     0.232360000000     0.371190000000    -0.0140786  
C230     C      0.863510000000     0.208770000000     0.411590000000    -0.0144374  
C231     C      0.904480000000     0.251070000000     0.392730000000    -0.0134165  
C232     C      0.877480000000     0.228910000000     0.433150000000    -0.0139305  
C233     C      0.818950000000     0.367690000000     0.565430000000    -0.0146138  
C234     C      0.870510000000     0.369040000000     0.577150000000    -0.014706   
C235     C      0.823460000000     0.339150000000     0.550590000000    -0.0129991  
C236     C      0.873810000000     0.340640000000     0.561590000000    -0.0132283  
C237     C      0.880960000000     0.428040000000     0.755440000000    -0.0146106  
C238     C      0.875840000000     0.375320000000     0.746300000000    -0.0146061  
C239     C      0.910240000000     0.422670000000     0.766970000000    -0.0133981  
C240     C      0.905180000000     0.370890000000     0.757970000000    -0.0133395  
C241     C      0.844450000000     0.445320000000     0.888350000000    -0.0127559  
C242     C      0.876720000000     0.452740000000     0.929140000000    -0.0124404  
C243     C      0.848610000000     0.475880000000     0.878090000000    -0.0148422  
C244     C      0.882050000000     0.483350000000     0.920020000000    -0.0148745  
C245     C      0.883510000000     0.640240000000     0.818700000000    -0.0132593  
C246     C      0.917660000000     0.601690000000     0.827090000000    -0.0132298  
C247     C      0.879530000000     0.630810000000     0.787490000000    -0.0146627  
C248     C      0.914550000000     0.591360000000     0.796040000000    -0.0146271  
C249     C      0.885780000000     0.529710000000     0.638690000000    -0.0148626  
C250     C      0.846640000000     0.546920000000     0.671690000000    -0.0151575  
C251     C      0.863830000000     0.515350000000     0.620010000000    -0.0125042  
C252     C      0.826100000000     0.531590000000     0.652040000000    -0.0122027  
C253     C      0.908670000000     0.746690000000     0.675890000000    -0.014376   
C254     C      0.878340000000     0.729250000000     0.635290000000    -0.0146346  
C255     C      0.930640000000     0.724940000000     0.667520000000    -0.0133906  
C256     C      0.900070000000     0.706540000000     0.628290000000    -0.0135923  
C257     C      0.735270000000     0.575230000000     0.894550000000    -0.015154   
C258     C      0.746420000000     0.627060000000     0.882000000000    -0.0152808  
C259     C      0.707040000000     0.579310000000     0.880180000000    -0.0120781  
C260     C      0.717880000000     0.629020000000     0.867890000000    -0.0120611  
C261     C      0.859590000000     0.094130000000     0.038580000000    -0.0139752  
C262     C      0.850130000000     0.145190000000     0.052580000000    -0.0142511  
C263     C      0.884060000000     0.104200000000     0.020540000000    -0.0132395  
C264     C      0.874340000000     0.154500000000     0.033450000000    -0.0139562  
C265     C      0.896220000000     0.245740000000     0.868540000000    -0.0140606  
C266     C      0.871920000000     0.261880000000     0.913360000000    -0.0141531  
C267     C      0.918900000000     0.267810000000     0.873430000000    -0.0141112  
C268     C      0.894010000000     0.284740000000     0.917880000000    -0.0142599  
C269     C      0.997020000000     0.134200000000     0.906540000000    -0.0144527  
C270     C      0.982430000000     0.134340000000     0.854110000000    -0.0149191  
C271     C      0.973320000000     0.113860000000     0.913030000000    -0.0127245  
C272     C      0.957710000000     0.115280000000     0.861970000000    -0.0135398  
C273     C      0.552530000000     0.586670000000     0.885460000000    -0.0122115  
C274     C      0.538360000000     0.588350000000     0.936710000000    -0.0123996  
C275     C      0.528210000000     0.605740000000     0.876810000000    -0.0153376  
C276     C      0.514310000000     0.608240000000     0.929710000000    -0.014768   
C277     C      0.385420000000     0.854630000000     0.039540000000    -0.0149751  
C278     C      0.334680000000     0.861060000000     0.026000000000    -0.0144472  
C279     C      0.376120000000     0.841920000000     0.068310000000    -0.0132     
C280     C      0.326630000000     0.847530000000     0.054640000000    -0.0129211  
C281     C      0.372620000000     0.733400000000     0.922940000000    -0.0138021  
C282     C      0.397620000000     0.747230000000     0.877800000000    -0.0135882  
C283     C      0.393220000000     0.709020000000     0.927610000000    -0.0146493  
C284     C      0.419180000000     0.724250000000     0.883160000000    -0.0142022  
C285     C      0.355070000000     0.539320000000     0.914980000000    -0.0152109  
C286     C      0.403690000000     0.518010000000     0.920650000000    -0.0143603  
C287     C      0.345000000000     0.518830000000     0.938390000000    -0.0126559  
C288     C      0.392290000000     0.499790000000     0.945040000000    -0.0126365  
C289     C      0.112140000000     0.034290000000     0.890990000000    -0.0144773  
C290     C      0.157200000000     0.050010000000     0.867790000000    -0.0149199  
C291     C      0.128840000000     0.017670000000     0.913170000000    -0.0134162  
C292     C      0.173140000000     0.031900000000     0.889640000000    -0.0136985  
C293     C      0.313560000000     0.918440000000     0.891980000000    -0.0124318  
C294     C      0.300360000000     0.874190000000     0.866760000000    -0.0120913  
C295     C      0.285170000000     0.919910000000     0.906790000000    -0.0154594  
C296     C      0.272290000000     0.873490000000     0.881820000000    -0.0148929  
C297     C      0.412560000000     0.608630000000     0.764710000000    -0.014736   
C298     C      0.364500000000     0.599650000000     0.783870000000    -0.014415   
C299     C      0.400310000000     0.628790000000     0.742040000000    -0.0141399  
C300     C      0.352860000000     0.620840000000     0.762270000000    -0.0132469  
C301     C      0.373760000000     0.658200000000     0.567440000000    -0.0142081  
C302     C      0.367620000000     0.608990000000     0.548380000000    -0.0131218  
C303     C      0.355910000000     0.669850000000     0.542650000000    -0.014843   
C304     C      0.348160000000     0.619910000000     0.525130000000    -0.0143464  
C305     C      0.267470000000     0.601470000000     0.370210000000    -0.012568   
C306     C      0.250550000000     0.650660000000     0.364350000000    -0.0127913  
C307     C      0.287370000000     0.610580000000     0.394190000000    -0.0152948  
C308     C      0.268740000000     0.661110000000     0.389050000000    -0.0143863  
C309     C      0.175680000000     0.650550000000     0.492570000000    -0.013299   
C310     C      0.126220000000     0.659990000000     0.480450000000    -0.013645   
C311     C      0.167510000000     0.638980000000     0.521980000000    -0.0142252  
C312     C      0.117260000000     0.650190000000     0.510570000000    -0.0147067  
C313     C      0.032240000000     0.600640000000     0.694220000000    -0.0127516  
C314     C      0.019650000000     0.586970000000     0.644570000000    -0.0128001  
C315     C      0.051230000000     0.624300000000     0.683320000000    -0.0149852  
C316     C      0.037630000000     0.610450000000     0.631780000000    -0.0147061  
C317     C      0.248120000000     0.653090000000     0.652330000000    -0.0149348  
C318     C      0.233050000000     0.601800000000     0.647200000000    -0.015085   
C319     C      0.222580000000     0.658600000000     0.670970000000    -0.0127441  
C320     C      0.207370000000     0.608530000000     0.665380000000    -0.0127962  
C321     C      0.730710000000     0.381600000000     0.698160000000    -0.012582   
C322     C      0.716570000000     0.422230000000     0.667810000000    -0.0124514  
C323     C      0.716250000000     0.360650000000     0.678080000000    -0.0148743  
C324     C      0.701150000000     0.402640000000     0.646990000000    -0.0150523  
C325     C      0.388290000000     0.428490000000     0.809430000000    -0.0134153  
C326     C      0.399030000000     0.378080000000     0.821150000000    -0.0135674  
C327     C      0.377300000000     0.419930000000     0.779940000000    -0.0140752  
C328     C      0.389550000000     0.368860000000     0.791060000000    -0.0146576  
C329     C      0.523800000000     0.321260000000     0.655630000000    -0.0133399  
C330     C      0.541170000000     0.361900000000     0.685150000000    -0.0138305  
C331     C      0.500370000000     0.339580000000     0.643910000000    -0.014205   
C332     C      0.516520000000     0.380060000000     0.675220000000    -0.0145528  
C333     C      0.399980000000     0.479230000000     0.634200000000    -0.0125862  
C334     C      0.351110000000     0.463010000000     0.638560000000    -0.0127956  
C335     C      0.394370000000     0.504040000000     0.654500000000    -0.0149311  
C336     C      0.344250000000     0.488100000000     0.658290000000    -0.0150706  
C337     C      0.399880000000     0.931960000000     0.265730000000    -0.0128463  
C338     C      0.419050000000     0.884400000000     0.254010000000    -0.0131672  
C339     C      0.373480000000     0.925610000000     0.248840000000    -0.0147608  
C340     C      0.393360000000     0.877350000000     0.235950000000    -0.0150139  
C341     C      0.524050000000     0.882260000000     0.383660000000    -0.0139425  
C342     C      0.502740000000     0.858730000000     0.426700000000    -0.0135622  
C343     C      0.545170000000     0.858080000000     0.381220000000    -0.0145482  
C344     C      0.522760000000     0.833920000000     0.423600000000    -0.0143554  
C345     C      0.370310000000     0.783120000000     0.424680000000    -0.0150608  
C346     C      0.380130000000     0.765650000000     0.373840000000    -0.0147919  
C347     C      0.356590000000     0.809460000000     0.411710000000    -0.0128436  
C348     C      0.365550000000     0.791960000000     0.362170000000    -0.0129275  
C349     C      0.344850000000     0.990070000000     0.392740000000    -0.0148851  
C350     C      0.393450000000     0.010560000000     0.391470000000    -0.0144246  
C351     C      0.355800000000     0.965460000000     0.411010000000    -0.0129353  
C352     C      0.403200000000     0.986370000000     0.410760000000    -0.0127338  
C353     C      0.845740000000     0.014960000000     0.403140000000    -0.0143771  
C354     C      0.891230000000     0.997440000000     0.383780000000    -0.014094   
C355     C      0.845710000000     0.038750000000     0.380500000000    -0.0145701  
C356     C      0.889860000000     0.019160000000     0.359650000000    -0.0139131  
C357     C      0.734190000000     0.886650000000     0.393430000000    -0.0139022  
C358     C      0.754220000000     0.840230000000     0.408970000000    -0.0135724  
C359     C      0.709410000000     0.882180000000     0.413680000000    -0.0147892  
C360     C      0.730960000000     0.836290000000     0.430730000000    -0.0142229  
C361     C      0.869470000000     0.843310000000     0.520820000000    -0.0144183  
C362     C      0.844980000000     0.887830000000     0.537000000000    -0.0140073  
C363     C      0.884430000000     0.860520000000     0.497480000000    -0.0138512  
C364     C      0.861180000000     0.904740000000     0.514690000000    -0.0134896  
C365     C      0.648670000000     0.237590000000     0.160130000000    -0.0125925  
C366     C      0.630390000000     0.249880000000     0.111990000000    -0.0125771  
C367     C      0.626470000000     0.255650000000     0.174920000000    -0.015098   
C368     C      0.607220000000     0.267790000000     0.125110000000    -0.0149363  
C369     C      0.660090000000     0.451190000000     0.167080000000    -0.0150671  
C370     C      0.617040000000     0.465410000000     0.138270000000    -0.014734   
C371     C      0.658790000000     0.422070000000     0.152610000000    -0.0125138  
C372     C      0.617570000000     0.436130000000     0.124300000000    -0.012507   
C373     C      0.680280000000     0.607850000000     0.032870000000    -0.0133389  
C374     C      0.638560000000     0.635270000000     0.048390000000    -0.0135941  
C375     C      0.671760000000     0.583130000000     0.052150000000    -0.0145961  
C376     C      0.629850000000     0.611010000000     0.068380000000    -0.0146046  
C377     C      0.759630000000     0.397670000000     0.433110000000    -0.0146816  
C378     C      0.754540000000     0.355760000000     0.399010000000    -0.0147708  
C379     C      0.788520000000     0.402920000000     0.420740000000    -0.0125382  
C380     C      0.783830000000     0.361630000000     0.387900000000    -0.0126842  
C381     C      0.610050000000     0.362060000000     0.525620000000    -0.0147168  
C382     C      0.652480000000     0.330350000000     0.520800000000    -0.014564   
C383     C      0.601200000000     0.353070000000     0.495330000000    -0.0132672  
C384     C      0.642490000000     0.321960000000     0.490770000000    -0.0132107  
C385     C      0.597490000000     0.403340000000     0.285730000000    -0.0135589  
C386     C      0.586040000000     0.353440000000     0.299110000000    -0.0135958  
C387     C      0.624490000000     0.401690000000     0.302870000000    -0.014379   
C388     C      0.612600000000     0.351370000000     0.317030000000    -0.0144278  
C389     C      0.452500000000     0.634070000000     0.378540000000    -0.0144127  
C390     C      0.471370000000     0.655030000000     0.424490000000    -0.0142857  
C391     C      0.472780000000     0.609300000000     0.381490000000    -0.0137017  
C392     C      0.490990000000     0.629830000000     0.427460000000    -0.0136127  
C393     C      0.581790000000     0.560680000000     0.268760000000    -0.0125479  
C394     C      0.582920000000     0.612280000000     0.258520000000    -0.0131134  
C395     C      0.609670000000     0.556310000000     0.254030000000    -0.0145893  
C396     C      0.610060000000     0.608980000000     0.241570000000    -0.0151774  
C397     C      0.597050000000     0.507840000000     0.416940000000    -0.0143602  
C398     C      0.644320000000     0.522040000000     0.396810000000    -0.014533   
C399     C      0.611990000000     0.490660000000     0.440100000000    -0.0131823  
C400     C      0.657870000000     0.504300000000     0.420500000000    -0.0128933  
C401     C      0.621910000000     0.709340000000     0.434270000000    -0.0149784  
C402     C      0.620350000000     0.726730000000     0.382420000000    -0.0149579  
C403     C      0.636080000000     0.682240000000     0.423690000000    -0.0130802  
C404     C      0.634660000000     0.699310000000     0.373150000000    -0.0130848  
C405     C      0.900400000000     0.861980000000     0.324580000000    -0.0135031  
C406     C      0.852330000000     0.862510000000     0.305060000000    -0.0124863  
C407     C      0.910370000000     0.880550000000     0.299460000000    -0.0149195  
C408     C      0.860980000000     0.882390000000     0.280880000000    -0.0146036  
C409     C      0.902020000000     0.981370000000     0.163120000000    -0.0138658  
C410     C      0.859610000000     0.957460000000     0.143520000000    -0.0143388  
C411     C      0.883870000000     0.001860000000     0.180120000000    -0.0137626  
C412     C      0.841220000000     0.978900000000     0.159460000000    -0.0140901  
C413     C      0.484430000000     0.876780000000     0.934790000000    -0.0149838  
C414     C      0.472240000000     0.880260000000     0.881180000000    -0.0151966  
C415     C      0.506920000000     0.899020000000     0.929720000000    -0.0124379  
C416     C      0.495670000000     0.901920000000     0.877910000000    -0.0125752  
C417     C      0.626760000000     0.772920000000     0.939990000000    -0.0136813  
C418     C      0.580200000000     0.759460000000     0.921080000000    -0.0133969  
C419     C      0.639630000000     0.746530000000     0.926150000000    -0.0144497  
C420     C      0.592480000000     0.733490000000     0.906200000000    -0.0142399  
C421     C      0.745460000000     0.847370000000     0.645430000000    -0.0144448  
C422     C      0.759090000000     0.897330000000     0.658920000000    -0.0147877  
C423     C      0.767840000000     0.836030000000     0.665600000000    -0.0132178  
C424     C      0.782410000000     0.885310000000     0.677850000000    -0.0136007  
C425     C      0.628680000000     0.825130000000     0.553030000000    -0.0148827  
C426     C      0.629810000000     0.875880000000     0.535020000000    -0.0146639  
C427     C      0.611670000000     0.835060000000     0.579080000000    -0.0134505  
C428     C      0.611720000000     0.884550000000     0.560380000000    -0.012657   
C429     C      0.648400000000     0.856990000000     0.766090000000    -0.0144063  
C430     C      0.597420000000     0.860090000000     0.751470000000    -0.01505    
C431     C      0.641030000000     0.831530000000     0.784860000000    -0.0125956  
C432     C      0.591380000000     0.835340000000     0.771860000000    -0.0126093  
C433     C      0.950810000000     0.878690000000     0.691900000000    -0.0150413  
C434     C      0.962890000000     0.890980000000     0.639680000000    -0.0143774  
C435     C      0.970530000000     0.902310000000     0.701580000000    -0.012867   
C436     C      0.981040000000     0.914970000000     0.651070000000    -0.0128203  
C437     C      0.096590000000     0.869970000000     0.800200000000    -0.0132416  
C438     C      0.142810000000     0.867620000000     0.776600000000    -0.0132671  
C439     C      0.106520000000     0.894190000000     0.819700000000    -0.0150142  
C440     C      0.153090000000     0.892830000000     0.794190000000    -0.0142638  
C441     C      0.083790000000     0.758790000000     0.659640000000    -0.0143131  
C442     C      0.126290000000     0.776730000000     0.633370000000    -0.0146695  
C443     C      0.067930000000     0.784940000000     0.649720000000    -0.0134166  
C444     C      0.110200000000     0.803680000000     0.625270000000    -0.0139223  
C445     C      0.150900000000     0.986210000000     0.637490000000    -0.0134284  
C446     C      0.148030000000     0.999550000000     0.689260000000    -0.0131773  
C447     C      0.122900000000     0.970930000000     0.639470000000    -0.0148097  
C448     C      0.119470000000     0.985880000000     0.691780000000    -0.0144257  
C449     C      0.394630000000     0.167260000000     0.501430000000    -0.0125793  
C450     C      0.394740000000     0.117880000000     0.519550000000    -0.0125447  
C451     C      0.370490000000     0.160660000000     0.481000000000    -0.0153085  
C452     C      0.369550000000     0.110320000000     0.501250000000    -0.0144526  
C453     C      0.368160000000     0.303230000000     0.617940000000    -0.0149627  
C454     C      0.356360000000     0.287400000000     0.669480000000    -0.0147004  
C455     C      0.345840000000     0.282810000000     0.607130000000    -0.0126589  
C456     C      0.334230000000     0.268010000000     0.656650000000    -0.0126008  
C457     C      0.279970000000     0.121410000000     0.593000000000    -0.0131117  
C458     C      0.290510000000     0.110810000000     0.644440000000    -0.0137576  
C459     C      0.251490000000     0.132840000000     0.601120000000    -0.0142389  
C460     C      0.261420000000     0.120790000000     0.653240000000    -0.0147624  
C461     C      0.473140000000     0.173850000000     0.642340000000    -0.0137062  
C462     C      0.448580000000     0.150960000000     0.683790000000    -0.0140723  
C463     C      0.493140000000     0.148890000000     0.640620000000    -0.0144094  
C464     C      0.470080000000     0.126930000000     0.683880000000    -0.0148382  
C465     C      0.637840000000     0.029560000000     0.683020000000    -0.0145917  
C466     C      0.589890000000     0.010190000000     0.691920000000    -0.0140403  
C467     C      0.642890000000     0.005980000000     0.660830000000    -0.0142597  
C468     C      0.594560000000     0.988030000000     0.668590000000    -0.014109   
C469     C      0.616140000000     0.196700000000     0.637940000000    -0.0151489  
C470     C      0.623200000000     0.213940000000     0.689620000000    -0.0145599  
C471     C      0.640190000000     0.216000000000     0.628710000000    -0.0131279  
C472     C      0.648200000000     0.230730000000     0.679210000000    -0.0127237  
C473     C      0.749680000000     0.132170000000     0.920910000000    -0.0140988  
C474     C      0.766190000000     0.081890000000     0.914070000000    -0.0145301  
C475     C      0.770110000000     0.141960000000     0.897910000000    -0.0135796  
C476     C      0.787780000000     0.092490000000     0.892230000000    -0.0141861  
C477     C      0.648170000000     0.968250000000     0.926980000000    -0.0149868  
C478     C      0.649270000000     0.975170000000     0.872450000000    -0.0147149  
C479     C      0.659310000000     0.938160000000     0.922490000000    -0.0131356  
C480     C      0.661240000000     0.945390000000     0.869680000000    -0.0125129  
C481     C      0.631320000000     0.122640000000     0.817080000000    -0.0142323  
C482     C      0.587840000000     0.095030000000     0.831120000000    -0.0148203  
C483     C      0.612680000000     0.144670000000     0.803030000000    -0.0127027  
C484     C      0.570460000000     0.116980000000     0.814670000000    -0.0138063  
C485     C      0.582400000000     0.092370000000     0.026950000000    -0.0123529  
C486     C      0.589150000000     0.142140000000     0.011910000000    -0.0128989  
C487     C      0.608190000000     0.082860000000     0.010400000000    -0.0152662  
C488     C      0.615020000000     0.134390000000     0.994580000000    -0.0145786  
C489     C      0.827000000000     0.611590000000     0.008210000000    -0.014735   
C490     C      0.873740000000     0.632800000000     0.995990000000    -0.0139734  
C491     C      0.819080000000     0.639170000000     0.023210000000    -0.0130404  
C492     C      0.865690000000     0.659570000000     0.012810000000    -0.0140723  
C493     C      0.878920000000     0.788770000000     0.134580000000    -0.0147823  
C494     C      0.904810000000     0.768770000000     0.177150000000    -0.0142994  
C495     C      0.855860000000     0.766890000000     0.139450000000    -0.0137331  
C496     C      0.881060000000     0.748110000000     0.182500000000    -0.0136268  
C497     C      0.766550000000     0.630490000000     0.172170000000    -0.0144711  
C498     C      0.786860000000     0.583350000000     0.154860000000    -0.0146015  
C499     C      0.751320000000     0.614140000000     0.195730000000    -0.0128661  
C500     C      0.770590000000     0.568500000000     0.178760000000    -0.0129217  
C501     C      0.379360000000     0.228700000000     0.112060000000    -0.0153554  
C502     C      0.346640000000     0.232240000000     0.155120000000    -0.0152854  
C503     C      0.366310000000     0.199920000000     0.104850000000    -0.0125505  
C504     C      0.334010000000     0.203970000000     0.146130000000    -0.0119759  
C505     C      0.326560000000     0.361740000000     0.026460000000    -0.0148691  
C506     C      0.378770000000     0.359790000000     0.019640000000    -0.0150174  
C507     C      0.323000000000     0.350220000000     0.995990000000    -0.0127669  
C508     C      0.374130000000     0.348800000000     0.988990000000    -0.0131371  
C509     C      0.453760000000     0.385650000000     0.161100000000    -0.0130074  
C510     C      0.448490000000     0.344710000000     0.194390000000    -0.0131594  
C511     C      0.482160000000     0.374780000000     0.151350000000    -0.0153489  
C512     C      0.476490000000     0.332720000000     0.184960000000    -0.0148952  
C513     C      0.942800000000     0.404840000000     0.404860000000    -0.0129575  
C514     C      0.963400000000     0.391050000000     0.451780000000    -0.0127268  
C515     C      0.967300000000     0.391800000000     0.388570000000    -0.0148854  
C516     C      0.987890000000     0.376940000000     0.436740000000    -0.0147815  
C517     C      0.147450000000     0.470250000000     0.399660000000    -0.014752   
C518     C      0.101840000000     0.489840000000     0.419850000000    -0.0143496  
C519     C      0.162940000000     0.489430000000     0.420900000000    -0.0129236  
C520     C      0.118860000000     0.507270000000     0.441110000000    -0.0125721  
C521     C      0.109310000000     0.304710000000     0.423340000000    -0.0148955  
C522     C      0.108190000000     0.292820000000     0.369860000000    -0.0146702  
C523     C      0.131070000000     0.281420000000     0.427520000000    -0.0134566  
C524     C      0.130680000000     0.270740000000     0.375120000000    -0.0131251  
C525     C      0.105950000000     0.631770000000     0.309410000000    -0.0151747  
C526     C      0.114400000000     0.579360000000     0.300020000000    -0.0147639  
C527     C      0.078570000000     0.629380000000     0.292800000000    -0.013073   
C528     C      0.086370000000     0.577880000000     0.284870000000    -0.0128691  
C529     C      0.941310000000     0.606500000000     0.172980000000    -0.0132022  
C530     C      0.954910000000     0.609220000000     0.121400000000    -0.0129915  
C531     C      0.966890000000     0.623640000000     0.181740000000    -0.0146606  
C532     C      0.980540000000     0.626660000000     0.129030000000    -0.0147077  
C533     C      0.158690000000     0.851620000000     0.981340000000    -0.0140423  
C534     C      0.166150000000     0.898990000000     0.005070000000    -0.0137901  
C535     C      0.135750000000     0.844970000000     0.003260000000    -0.0149669  
C536     C      0.141830000000     0.893200000000     0.025100000000    -0.0141799  
C537     C      0.106120000000     0.702170000000     0.121100000000    -0.0149516  
C538     C      0.120660000000     0.714620000000     0.172250000000    -0.0147392  
C539     C      0.130730000000     0.719460000000     0.109870000000    -0.0134908  
C540     C      0.145210000000     0.730940000000     0.159840000000    -0.0128328  
C541     C      0.247600000000     0.851940000000     0.179050000000    -0.0125206  
C542     C      0.230630000000     0.901320000000     0.175490000000    -0.0126621  
C543     C      0.229650000000     0.842640000000     0.153770000000    -0.0143621  
C544     C      0.210470000000     0.893160000000     0.151360000000    -0.0150545  
C545     C      0.026890000000     0.847020000000     0.126210000000    -0.0141311  
C546     C      0.045700000000     0.856050000000     0.176120000000    -0.0145663  
C547     C      0.008450000000     0.873080000000     0.129120000000    -0.0136256  
C548     C      0.025590000000     0.881070000000     0.179240000000    -0.0139686  
C549     C      0.287440000000     0.406020000000     0.158460000000    -0.0150477  
C550     C      0.271830000000     0.357930000000     0.178450000000    -0.0150475  
C551     C      0.269150000000     0.420250000000     0.181180000000    -0.0125426  
C552     C      0.254710000000     0.373880000000     0.200870000000    -0.0123672  
C553     C      0.145900000000     0.540970000000     0.154750000000    -0.0149074  
C554     C      0.099250000000     0.520350000000     0.138520000000    -0.0144951  
C555     C      0.160010000000     0.522140000000     0.132270000000    -0.0126406  
C556     C      0.114970000000     0.502890000000     0.116170000000    -0.012612   
C557     C      0.104100000000     0.383250000000     0.248300000000    -0.0149408  
C558     C      0.115440000000     0.434830000000     0.258910000000    -0.0149247  
C559     C      0.075950000000     0.387450000000     0.263030000000    -0.0132454  
C560     C      0.086860000000     0.438030000000     0.272700000000    -0.0129551  
C561     C      0.120230000000     0.240220000000     0.931040000000    -0.0141676  
C562     C      0.091480000000     0.260810000000     0.891130000000    -0.0135884  
C563     C      0.132240000000     0.218310000000     0.909940000000    -0.0143251  
C564     C      0.104900000000     0.240530000000     0.869800000000    -0.0137648  
C565     C      0.176690000000     0.353900000000     0.071200000000    -0.0130107  
C566     C      0.126040000000     0.350970000000     0.080370000000    -0.013241   
C567     C      0.171730000000     0.366350000000     0.041320000000    -0.0145007  
C568     C      0.119780000000     0.362490000000     0.050200000000    -0.0149193  
C569     C      0.015510000000     0.389920000000     0.925230000000    -0.0151208  
C570     C      0.032460000000     0.388500000000     0.873060000000    -0.0152045  
C571     C      0.040800000000     0.407940000000     0.932650000000    -0.0124575  
C572     C      0.057730000000     0.405920000000     0.882430000000    -0.0125911  
C573     C      0.233460000000     0.421920000000     0.885240000000    -0.0126101  
C574     C      0.245400000000     0.373450000000     0.869170000000    -0.0126266  
C575     C      0.214450000000     0.410420000000     0.908850000000    -0.0146402  
C576     C      0.226870000000     0.360250000000     0.892290000000    -0.0146462  
Cd1      Cd     0.131330000000     0.349920000000     0.940340000000     0.507437   
Cd2      Cd     0.163560000000     0.416430000000     0.161630000000     0.508058   
Cd3      Cd     0.131540000000     0.829380000000     0.114110000000     0.508541   
Cd4      Cd     0.073960000000     0.616870000000     0.181850000000     0.508058   
Cd5      Cd     0.073830000000     0.395380000000     0.374280000000     0.507483   
Cd6      Cd     0.363310000000     0.335930000000     0.127030000000     0.507602   
Cd7      Cd     0.858820000000     0.657620000000     0.124250000000     0.508458   
Cd8      Cd     0.658230000000     0.075680000000     0.912590000000     0.507655   
Cd9      Cd     0.576220000000     0.118060000000     0.702810000000     0.505062   
Cd10     Cd     0.371000000000     0.175840000000     0.609780000000     0.509065   
Cd11     Cd     0.076700000000     0.886040000000     0.691440000000     0.508759   
Cd12     Cd     0.651440000000     0.895990000000     0.662760000000     0.508168   
Cd13     Cd     0.595050000000     0.860120000000     0.880310000000     0.508889   
Cd14     Cd     0.918370000000     0.876360000000     0.188250000000     0.510686   
Cd15     Cd     0.579750000000     0.604840000000     0.370190000000     0.507828   
Cd16     Cd     0.655630000000     0.395340000000     0.409170000000     0.507136   
Cd17     Cd     0.665060000000     0.559670000000     0.160200000000     0.508912   
Cd18     Cd     0.581530000000     0.354110000000     0.187480000000     0.507749   
Cd19     Cd     0.839830000000     0.904760000000     0.406060000000     0.509677   
Cd20     Cd     0.417690000000     0.887660000000     0.365780000000     0.50796    
Cd21     Cd     0.626750000000     0.818270000000     0.441750000000     0.510273   
Cd22     Cd     0.408640000000     0.380870000000     0.681970000000     0.508035   
Cd23     Cd     0.627490000000     0.325450000000     0.628570000000     0.507831   
Cd24     Cd     0.127450000000     0.667130000000     0.620450000000     0.507524   
Cd25     Cd     0.163090000000     0.596750000000     0.396840000000     0.508652   
Cd26     Cd     0.366420000000     0.674020000000     0.431120000000     0.509444   
Cd27     Cd     0.340050000000     0.597760000000     0.654660000000     0.509107   
Cd28     Cd     0.178530000000     0.921980000000     0.897600000000     0.508223   
Cd29     Cd     0.338340000000     0.413560000000     0.906500000000     0.508274   
Cd30     Cd     0.383340000000     0.843140000000     0.929240000000     0.507625   
Cd31     Cd     0.421740000000     0.615510000000     0.876100000000     0.508596   
Cd32     Cd     0.874100000000     0.152400000000     0.921800000000     0.507854   
Cd33     Cd     0.633940000000     0.637390000000     0.936680000000     0.508108   
Cd34     Cd     0.869930000000     0.838940000000     0.632410000000     0.507978   
Cd35     Cd     0.926000000000     0.617520000000     0.688890000000     0.507434   
Cd36     Cd     0.840750000000     0.582070000000     0.902540000000     0.50793    
Cd37     Cd     0.925850000000     0.376990000000     0.867070000000     0.507179   
Cd38     Cd     0.869750000000     0.337780000000     0.450150000000     0.507955   
Cd39     Cd     0.823790000000     0.422290000000     0.661320000000     0.50749    
Cd40     Cd     0.334610000000     0.906630000000     0.147670000000     0.509499   
Cd41     Cd     0.903930000000     0.126600000000     0.349930000000     0.510551   
Cd42     Cd     0.089800000000     0.134010000000     0.852290000000     0.508727   
Cd43     Cd     0.118870000000     0.172280000000     0.421520000000     0.508778   
Cd44     Cd     0.157470000000     0.096230000000     0.638240000000     0.508688   
Cd45     Cd     0.826800000000     0.087180000000     0.143510000000     0.508518   
Cd46     Cd     0.610000000000     0.143070000000     0.120810000000     0.507998   
Cd47     Cd     0.331720000000     0.098560000000     0.398940000000     0.511117   
Cd48     Cd     0.392670000000     0.116020000000     0.171500000000     0.508065   
H1       H      0.368830000000     0.159280000000     0.294170000000     0.0492228  
H2       H      0.324220000000     0.133570000000     0.277270000000     0.0496397  
H3       H      0.333940000000     0.089160000000     0.251400000000     0.054994   
H4       H      0.388040000000     0.144360000000     0.323660000000     0.054076   
H5       H      0.408480000000     0.134220000000     0.274460000000     0.0534     
H6       H      0.400670000000     0.103140000000     0.295190000000     0.0500106  
H7       H      0.312200000000     0.103470000000     0.297400000000     0.0538202  
H8       H      0.352970000000     0.075790000000     0.281750000000     0.0510131  
H9       H      0.513610000000     0.160420000000     0.199570000000     0.0481438  
H10      H      0.521340000000     0.107610000000     0.203420000000     0.0480663  
H11      H      0.488450000000     0.082390000000     0.173470000000     0.0547901  
H12      H      0.528150000000     0.179630000000     0.169770000000     0.0532657  
H13      H      0.476950000000     0.172280000000     0.165700000000     0.0541197  
H14      H      0.495850000000     0.156810000000     0.136360000000     0.0528997  
H15      H      0.540270000000     0.089480000000     0.175610000000     0.0540203  
H16      H      0.502970000000     0.097080000000     0.141230000000     0.0527506  
H17      H      0.723610000000     0.117950000000     0.104670000000     0.0534518  
H18      H      0.720550000000     0.122230000000     0.166730000000     0.0527311  
H19      H      0.680220000000     0.094920000000     0.180420000000     0.0541209  
H20      H      0.738760000000     0.085230000000     0.092760000000     0.0543645  
H21      H      0.687230000000     0.085340000000     0.088660000000     0.0530627  
H22      H      0.700230000000     0.058000000000     0.111970000000     0.0479659  
H23      H      0.732600000000     0.090830000000     0.184450000000     0.0544014  
H24      H      0.694810000000     0.062930000000     0.165780000000     0.0479081  
H25      H      0.146710000000     0.164210000000     0.539530000000     0.0527153  
H26      H      0.151290000000     0.108670000000     0.518640000000     0.0524021  
H27      H      0.116990000000     0.079280000000     0.543460000000     0.0540237  
H28      H      0.117310000000     0.183490000000     0.526200000000     0.0549703  
H29      H      0.110410000000     0.164380000000     0.576200000000     0.0535347  
H30      H      0.085290000000     0.151810000000     0.550650000000     0.047894   
H31      H      0.124600000000     0.098410000000     0.493840000000     0.0543112  
H32      H      0.089280000000     0.101730000000     0.531170000000     0.0478368  
H33      H      0.228920000000     0.155930000000     0.365850000000     0.0497174  
H34      H      0.209330000000     0.105110000000     0.366050000000     0.0495367  
H35      H      0.231470000000     0.079560000000     0.405170000000     0.0547367  
H36      H      0.213170000000     0.182150000000     0.388620000000     0.0537352  
H37      H      0.258420000000     0.166720000000     0.407920000000     0.0550537  
H38      H      0.230750000000     0.156950000000     0.431780000000     0.0518646  
H39      H      0.182950000000     0.096250000000     0.391880000000     0.0542676  
H40      H      0.215230000000     0.101770000000     0.431630000000     0.0503287  
H41      H      0.099570000000     0.095140000000     0.740210000000     0.0532664  
H42      H      0.147580000000     0.131190000000     0.749710000000     0.0550549  
H43      H      0.146350000000     0.168170000000     0.712940000000     0.0535414  
H44      H      0.067890000000     0.111470000000     0.751740000000     0.0543416  
H45      H      0.076020000000     0.114210000000     0.698110000000     0.0528661  
H46      H      0.071520000000     0.148010000000     0.715370000000     0.0470699  
H47      H      0.138670000000     0.164330000000     0.766230000000     0.0548465  
H48      H      0.112370000000     0.179140000000     0.724350000000     0.0471425  
H49      H      0.838220000000     0.112720000000     0.255210000000     0.0550677  
H50      H      0.895940000000     0.108010000000     0.233630000000     0.0545454  
H51      H      0.898680000000     0.141320000000     0.193970000000     0.053581   
H52      H      0.833810000000     0.143730000000     0.277050000000     0.0544108  
H53      H      0.815870000000     0.149680000000     0.226660000000     0.0534753  
H54      H      0.842180000000     0.174890000000     0.236530000000     0.046474   
H55      H      0.916540000000     0.137470000000     0.245230000000     0.0546854  
H56      H      0.889690000000     0.170510000000     0.217040000000     0.0465712  
H57      H      0.022690000000     0.166020000000     0.350750000000     0.0507035  
H58      H      0.002060000000     0.174160000000     0.405280000000     0.0504193  
H59      H      0.976650000000     0.131940000000     0.421490000000     0.0534183  
H60      H      0.051170000000     0.141730000000     0.348070000000     0.0545174  
H61      H      0.004540000000     0.121060000000     0.334100000000     0.0549198  
H62      H      0.022370000000     0.102130000000     0.362040000000     0.0493553  
H63      H      0.020460000000     0.156480000000     0.433710000000     0.0534408  
H64      H      0.006520000000     0.110060000000     0.415080000000     0.0491677  
H65      H      0.332180000000     0.023980000000     0.152950000000     0.0563759  
H66      H      0.393240000000     0.006290000000     0.145520000000     0.0557017  
H67      H      0.393870000000     0.977870000000     0.102090000000     0.052607   
H68      H      0.324400000000     0.051120000000     0.127280000000     0.0537377  
H69      H      0.308700000000     0.001500000000     0.113180000000     0.0537312  
H70      H      0.330160000000     0.019450000000     0.087310000000     0.045555   
H71      H      0.408320000000     0.027250000000     0.117450000000     0.05334    
H72      H      0.379080000000     0.006230000000     0.081300000000     0.0454713  
H73      H      0.843120000000     0.218000000000     0.405570000000     0.0502618  
H74      H      0.870510000000     0.243940000000     0.363650000000     0.0505001  
H75      H      0.909910000000     0.271450000000     0.382160000000     0.0538138  
H76      H      0.859600000000     0.188060000000     0.422210000000     0.054617   
H77      H      0.862770000000     0.233570000000     0.450940000000     0.0537196  
H78      H      0.895650000000     0.217770000000     0.442560000000     0.049327   
H79      H      0.902810000000     0.228690000000     0.352250000000     0.0539535  
H80      H      0.924120000000     0.240320000000     0.398860000000     0.0494774  
H81      H      0.876840000000     0.386240000000     0.562190000000     0.0531876  
H82      H      0.818560000000     0.384530000000     0.548710000000     0.0529243  
H83      H      0.807760000000     0.336330000000     0.533320000000     0.0532209  
H84      H      0.884950000000     0.369490000000     0.595780000000     0.0540062  
H85      H      0.894990000000     0.339150000000     0.552300000000     0.0540256  
H86      H      0.871520000000     0.323400000000     0.577730000000     0.0475301  
H87      H      0.798280000000     0.367420000000     0.576020000000     0.0532956  
H88      H      0.820280000000     0.322100000000     0.566780000000     0.0476783  
H89      H      0.860870000000     0.370940000000     0.763930000000     0.0525369  
H90      H      0.866520000000     0.429320000000     0.774040000000     0.0512925  
H91      H      0.915390000000     0.438970000000     0.783370000000     0.0530245  
H92      H      0.872000000000     0.359610000000     0.728930000000     0.0543918  
H93      H      0.906770000000     0.349470000000     0.767750000000     0.0540351  
H94      H      0.919850000000     0.371790000000     0.739540000000     0.048353   
H95      H      0.880670000000     0.448920000000     0.744370000000     0.0531753  
H96      H      0.925080000000     0.424970000000     0.748810000000     0.0483373  
H97      H      0.859020000000     0.452620000000     0.944480000000     0.0472483  
H98      H      0.826490000000     0.444920000000     0.903350000000     0.0471261  
H99      H      0.828550000000     0.483970000000     0.869630000000     0.0536403  
H100     H      0.895180000000     0.444270000000     0.940580000000     0.0538034  
H101     H      0.884660000000     0.496460000000     0.939710000000     0.0544662  
H102     H      0.901910000000     0.484130000000     0.907910000000     0.0544473  
H103     H      0.839410000000     0.431570000000     0.869640000000     0.0523465  
H104     H      0.863640000000     0.475770000000     0.859960000000     0.0525198  
H105     H      0.935020000000     0.617190000000     0.827810000000     0.0480958  
H106     H      0.900200000000     0.656500000000     0.819210000000     0.0480201  
H107     H      0.876020000000     0.649940000000     0.774010000000     0.0542028  
H108     H      0.923240000000     0.583520000000     0.841160000000     0.0535427  
H109     H      0.935010000000     0.583570000000     0.788390000000     0.0539256  
H110     H      0.899980000000     0.573100000000     0.795850000000     0.0518917  
H111     H      0.864130000000     0.650290000000     0.826650000000     0.0540317  
H112     H      0.860510000000     0.617570000000     0.786270000000     0.0527587  
H113     H      0.850090000000     0.533680000000     0.691150000000     0.0542367  
H114     H      0.895730000000     0.513350000000     0.652470000000     0.0544897  
H115     H      0.873060000000     0.496760000000     0.608890000000     0.0530901  
H116     H      0.837070000000     0.567140000000     0.678930000000     0.0536637  
H117     H      0.807680000000     0.524890000000     0.664690000000     0.0536661  
H118     H      0.819010000000     0.546780000000     0.635290000000     0.0464644  
H119     H      0.902100000000     0.538570000000     0.624380000000     0.0541345  
H120     H      0.856990000000     0.530710000000     0.603300000000     0.0465731  
H121     H      0.862210000000     0.719460000000     0.649190000000     0.0512698  
H122     H      0.895640000000     0.737520000000     0.693300000000     0.0521082  
H123     H      0.942820000000     0.719060000000     0.686910000000     0.0536682  
H124     H      0.868110000000     0.736050000000     0.615000000000     0.0545958  
H125     H      0.889500000000     0.687340000000     0.619850000000     0.053557   
H126     H      0.913700000000     0.714910000000     0.610970000000     0.0487115  
H127     H      0.919220000000     0.765760000000     0.684690000000     0.0541563  
H128     H      0.945010000000     0.734980000000     0.651840000000     0.0483705  
H129     H      0.745470000000     0.637690000000     0.903330000000     0.0552361  
H130     H      0.732370000000     0.575960000000     0.918280000000     0.0553273  
H131     H      0.691590000000     0.564930000000     0.890250000000     0.0532439  
H132     H      0.761500000000     0.639030000000     0.868590000000     0.0537492  
H133     H      0.710360000000     0.651270000000     0.868740000000     0.0531161  
H134     H      0.720040000000     0.622970000000     0.844860000000     0.045898   
H135     H      0.743100000000     0.553710000000     0.889120000000     0.0535203  
H136     H      0.709010000000     0.573300000000     0.857130000000     0.0458875  
H137     H      0.830580000000     0.147820000000     0.040210000000     0.0510763  
H138     H      0.841340000000     0.091570000000     0.024200000000     0.0517669  
H139     H      0.887550000000     0.089160000000     0.002500000000     0.0539736  
H140     H      0.849060000000     0.159520000000     0.071540000000     0.0538155  
H141     H      0.870010000000     0.175950000000     0.024650000000     0.0539172  
H142     H      0.893250000000     0.155880000000     0.047050000000     0.0485183  
H143     H      0.864650000000     0.072970000000     0.047680000000     0.0539171  
H144     H      0.902890000000     0.103970000000     0.034350000000     0.0483128  
H145     H      0.854330000000     0.271550000000     0.901420000000     0.0496716  
H146     H      0.880280000000     0.255090000000     0.854090000000     0.0500217  
H147     H      0.927090000000     0.274700000000     0.852190000000     0.0542116  
H148     H      0.864000000000     0.254830000000     0.934640000000     0.0548172  
H149     H      0.884190000000     0.303590000000     0.927960000000     0.0540783  
H150     H      0.909670000000     0.276380000000     0.933230000000     0.0502538  
H151     H      0.905360000000     0.227090000000     0.857430000000     0.0533536  
H152     H      0.936130000000     0.257620000000     0.885480000000     0.0495369  
H153     H      0.974980000000     0.156610000000     0.853180000000     0.0507031  
H154     H      0.990010000000     0.156130000000     0.911400000000     0.0518342  
H155     H      0.966780000000     0.116360000000     0.935820000000     0.0535027  
H156     H      0.989850000000     0.128530000000     0.832250000000     0.0543655  
H157     H      0.939980000000     0.120170000000     0.847540000000     0.0540551  
H158     H      0.963900000000     0.092880000000     0.858240000000     0.048751   
H159     H      0.014610000000     0.129200000000     0.921120000000     0.0545759  
H160     H      0.981090000000     0.091830000000     0.910270000000     0.0487527  
H161     H      0.530710000000     0.566150000000     0.935320000000     0.0469976  
H162     H      0.545620000000     0.564240000000     0.883760000000     0.0470425  
H163     H      0.520190000000     0.598580000000     0.855600000000     0.0551011  
H164     H      0.545520000000     0.592140000000     0.959110000000     0.0531032  
H165     H      0.496790000000     0.603230000000     0.944390000000     0.0542491  
H166     H      0.520950000000     0.630370000000     0.934200000000     0.0540423  
H167     H      0.570010000000     0.589760000000     0.870210000000     0.053315   
H168     H      0.536140000000     0.627690000000     0.874030000000     0.0540008  
H169     H      0.333590000000     0.884480000000     0.028370000000     0.0523378  
H170     H      0.390830000000     0.877260000000     0.043110000000     0.0524584  
H171     H      0.391910000000     0.846570000000     0.085070000000     0.0542158  
H172     H      0.319180000000     0.854740000000     0.009500000000     0.0534525  
H173     H      0.306100000000     0.855720000000     0.061600000000     0.0527909  
H174     H      0.324630000000     0.824280000000     0.051280000000     0.0476882  
H175     H      0.404560000000     0.843560000000     0.032400000000     0.0546527  
H176     H      0.374840000000     0.818520000000     0.065750000000     0.047897   
H177     H      0.381140000000     0.738300000000     0.863750000000     0.049679   
H178     H      0.354310000000     0.724820000000     0.911290000000     0.0492194  
H179     H      0.382130000000     0.690820000000     0.937500000000     0.0539796  
H180     H      0.407520000000     0.765080000000     0.866060000000     0.0545519  
H181     H      0.427320000000     0.716850000000     0.862090000000     0.0541434  
H182     H      0.436730000000     0.733750000000     0.895310000000     0.0505027  
H183     H      0.365400000000     0.741290000000     0.944190000000     0.0532165  
H184     H      0.409250000000     0.716270000000     0.943130000000     0.0500234  
H185     H      0.405130000000     0.504830000000     0.900880000000     0.0551434  
H186     H      0.348480000000     0.530890000000     0.893710000000     0.0543464  
H187     H      0.322940000000     0.513230000000     0.934490000000     0.0536998  
H188     H      0.425070000000     0.524750000000     0.926440000000     0.0527589  
H189     H      0.404930000000     0.480210000000     0.947190000000     0.053011   
H190     H      0.394090000000     0.511940000000     0.965470000000     0.0464283  
H191     H      0.344480000000     0.560050000000     0.917960000000     0.0543827  
H192     H      0.346230000000     0.529930000000     0.959460000000     0.0462689  
H193     H      0.155330000000     0.037750000000     0.847460000000     0.0505348  
H194     H      0.105490000000     0.019500000000     0.873700000000     0.0517295  
H195     H      0.116280000000     0.999470000000     0.920920000000     0.0542149  
H196     H      0.169540000000     0.069340000000     0.863000000000     0.0541288  
H197     H      0.192460000000     0.023850000000     0.879490000000     0.0539626  
H198     H      0.179170000000     0.045750000000     0.907960000000     0.0487756  
H199     H      0.093170000000     0.042630000000     0.901590000000     0.0539155  
H200     H      0.132910000000     0.031790000000     0.931860000000     0.048839   
H201     H      0.298040000000     0.886180000000     0.846300000000     0.0472965  
H202     H      0.312310000000     0.930640000000     0.871550000000     0.0470415  
H203     H      0.278480000000     0.942430000000     0.907770000000     0.0542512  
H204     H      0.306910000000     0.852250000000     0.861310000000     0.0534152  
H205     H      0.256760000000     0.864610000000     0.866610000000     0.0545851  
H206     H      0.273650000000     0.858860000000     0.900520000000     0.0546991  
H207     H      0.329430000000     0.928660000000     0.905860000000     0.0529247  
H208     H      0.287580000000     0.912360000000     0.929310000000     0.052908   
H209     H      0.363070000000     0.578090000000     0.774320000000     0.0506271  
H210     H      0.414920000000     0.587370000000     0.754710000000     0.0502899  
H211     H      0.413000000000     0.627700000000     0.722120000000     0.0544649  
H212     H      0.351440000000     0.599930000000     0.803570000000     0.0544975  
H213     H      0.331120000000     0.615040000000     0.756990000000     0.0536059  
H214     H      0.352560000000     0.642100000000     0.772590000000     0.0494522  
H215     H      0.433540000000     0.616250000000     0.770870000000     0.0547589  
H216     H      0.401630000000     0.650770000000     0.750560000000     0.0496992  
H217     H      0.389020000000     0.608660000000     0.539490000000     0.0495363  
H218     H      0.395860000000     0.659440000000     0.560810000000     0.049668   
H219     H      0.364090000000     0.690880000000     0.536050000000     0.0546381  
H220     H      0.361890000000     0.586860000000     0.553990000000     0.053609   
H221     H      0.349550000000     0.605720000000     0.506110000000     0.0546406  
H222     H      0.326570000000     0.618820000000     0.533440000000     0.0508357  
H223     H      0.371000000000     0.671820000000     0.586740000000     0.0543066  
H224     H      0.334500000000     0.673010000000     0.550870000000     0.050114   
H225     H      0.262520000000     0.652590000000     0.343990000000     0.0467275  
H226     H      0.278760000000     0.602760000000     0.349390000000     0.0466883  
H227     H      0.307090000000     0.598630000000     0.391730000000     0.0547489  
H228     H      0.231870000000     0.664330000000     0.362540000000     0.0533214  
H229     H      0.276080000000     0.682860000000     0.383840000000     0.0528535  
H230     H      0.255880000000     0.662510000000     0.408850000000     0.0543282  
H231     H      0.261190000000     0.579050000000     0.373550000000     0.0538705  
H232     H      0.278190000000     0.604340000000     0.415190000000     0.0540637  
H233     H      0.129210000000     0.683340000000     0.481090000000     0.0481978  
H234     H      0.179950000000     0.673600000000     0.494840000000     0.0483152  
H235     H      0.184410000000     0.643890000000     0.537460000000     0.0533332  
H236     H      0.109380000000     0.655360000000     0.464820000000     0.054131   
H237     H      0.099700000000     0.663630000000     0.517910000000     0.0538473  
H238     H      0.109480000000     0.628080000000     0.508870000000     0.0517144  
H239     H      0.195120000000     0.640110000000     0.485330000000     0.0532067  
H240     H      0.165750000000     0.615540000000     0.520440000000     0.05217    
H241     H      0.032570000000     0.567550000000     0.646590000000     0.0462658  
H242     H      0.044820000000     0.581020000000     0.696520000000     0.0461485  
H243     H      0.070130000000     0.624830000000     0.697010000000     0.0537185  
H244     H      0.002230000000     0.582150000000     0.629700000000     0.0539592  
H245     H      0.047650000000     0.602260000000     0.611900000000     0.0532281  
H246     H      0.023960000000     0.628340000000     0.625350000000     0.0550319  
H247     H      0.024060000000     0.606320000000     0.715820000000     0.0534254  
H248     H      0.040410000000     0.644910000000     0.686230000000     0.0547626  
H249     H      0.227050000000     0.602680000000     0.624120000000     0.0522343  
H250     H      0.243350000000     0.659720000000     0.629920000000     0.0527715  
H251     H      0.216240000000     0.681140000000     0.668820000000     0.0538134  
H252     H      0.239820000000     0.579770000000     0.651940000000     0.054675   
H253     H      0.189990000000     0.594520000000     0.658760000000     0.0533248  
H254     H      0.212340000000     0.603760000000     0.688240000000     0.0478981  
H255     H      0.265380000000     0.666610000000     0.660250000000     0.0546007  
H256     H      0.228340000000     0.654820000000     0.693820000000     0.0480761  
H257     H      0.701690000000     0.429310000000     0.684620000000     0.0467179  
H258     H      0.715680000000     0.388190000000     0.715020000000     0.0467012  
H259     H      0.707150000000     0.343380000000     0.691350000000     0.0542033  
H260     H      0.723950000000     0.441330000000     0.656100000000     0.0537518  
H261     H      0.681910000000     0.413480000000     0.639740000000     0.0537893  
H262     H      0.714360000000     0.399330000000     0.627680000000     0.0539107  
H263     H      0.748430000000     0.370980000000     0.709000000000     0.0531169  
H264     H      0.732090000000     0.350930000000     0.663780000000     0.0542149  
H265     H      0.421780000000     0.381790000000     0.820410000000     0.0482755  
H266     H      0.410670000000     0.433700000000     0.807230000000     0.0485127  
H267     H      0.381530000000     0.437460000000     0.764560000000     0.0531623  
H268     H      0.395060000000     0.360630000000     0.836680000000     0.0541154  
H269     H      0.402950000000     0.351150000000     0.783640000000     0.0540047  
H270     H      0.368030000000     0.360600000000     0.792760000000     0.0516313  
H271     H      0.377360000000     0.447920000000     0.816780000000     0.053278   
H272     H      0.354450000000     0.417320000000     0.781450000000     0.0516803  
H273     H      0.535500000000     0.351780000000     0.705930000000     0.0482513  
H274     H      0.516070000000     0.309860000000     0.674970000000     0.0486209  
H275     H      0.482370000000     0.325700000000     0.638990000000     0.0543396  
H276     H      0.559330000000     0.375860000000     0.689090000000     0.053382   
H277     H      0.509950000000     0.394030000000     0.693230000000     0.0535017  
H278     H      0.523680000000     0.393910000000     0.657360000000     0.0510728  
H279     H      0.529530000000     0.305160000000     0.639230000000     0.0534101  
H280     H      0.507380000000     0.349370000000     0.623400000000     0.0521055  
H281     H      0.346560000000     0.469420000000     0.616020000000     0.0479475  
H282     H      0.396230000000     0.486500000000     0.611770000000     0.0480877  
H283     H      0.407620000000     0.522190000000     0.647910000000     0.0546665  
H284     H      0.337500000000     0.444780000000     0.643970000000     0.0534019  
H285     H      0.322690000000     0.495170000000     0.653860000000     0.0546657  
H286     H      0.345040000000     0.480610000000     0.680950000000     0.0523269  
H287     H      0.422070000000     0.472770000000     0.635930000000     0.0536978  
H288     H      0.400670000000     0.497720000000     0.676590000000     0.0528932  
H289     H      0.434940000000     0.893720000000     0.239490000000     0.0482371  
H290     H      0.414900000000     0.942340000000     0.250950000000     0.0481534  
H291     H      0.365960000000     0.945660000000     0.239000000000     0.0540611  
H292     H      0.427710000000     0.864550000000     0.263220000000     0.0542033  
H293     H      0.399880000000     0.864470000000     0.217110000000     0.0546532  
H294     H      0.379240000000     0.864070000000     0.249210000000     0.0523108  
H295     H      0.395120000000     0.947110000000     0.283360000000     0.0527765  
H296     H      0.357340000000     0.918170000000     0.264160000000     0.0524692  
H297     H      0.511910000000     0.874260000000     0.441970000000     0.0497586  
H298     H      0.533630000000     0.899600000000     0.396440000000     0.0498581  
H299     H      0.565130000000     0.866790000000     0.373220000000     0.0547891  
H300     H      0.483010000000     0.850920000000     0.436170000000     0.053732   
H301     H      0.526780000000     0.824810000000     0.445250000000     0.0540902  
H302     H      0.512600000000     0.817290000000     0.410340000000     0.0501663  
H303     H      0.519570000000     0.890680000000     0.361820000000     0.0541304  
H304     H      0.537420000000     0.842720000000     0.364960000000     0.0503905  
H305     H      0.402860000000     0.769520000000     0.373590000000     0.0526892  
H306     H      0.391830000000     0.788720000000     0.431040000000     0.0530681  
H307     H      0.359110000000     0.827670000000     0.426660000000     0.0542639  
H308     H      0.375830000000     0.747650000000     0.359080000000     0.0542849  
H309     H      0.374220000000     0.797460000000     0.340730000000     0.0532306  
H310     H      0.343210000000     0.786870000000     0.359320000000     0.0473988  
H311     H      0.358920000000     0.777090000000     0.444560000000     0.0549757  
H312     H      0.334030000000     0.805140000000     0.409460000000     0.0477066  
H313     H      0.397940000000     0.004850000000     0.368720000000     0.0524069  
H314     H      0.344070000000     0.983010000000     0.369930000000     0.0519301  
H315     H      0.343500000000     0.946070000000     0.406450000000     0.0540173  
H316     H      0.405680000000     0.029830000000     0.396770000000     0.054053   
H317     H      0.425510000000     0.982120000000     0.406710000000     0.0536113  
H318     H      0.400920000000     0.993150000000     0.433560000000     0.0480786  
H319     H      0.323300000000     0.995010000000     0.399550000000     0.0549888  
H320     H      0.352760000000     0.971000000000     0.434050000000     0.0484057  
H321     H      0.903340000000     0.006640000000     0.401870000000     0.0503454  
H322     H      0.854500000000     0.023690000000     0.423410000000     0.0497547  
H323     H      0.836450000000     0.058130000000     0.390110000000     0.054624   
H324     H      0.902540000000     0.978460000000     0.375870000000     0.0539155  
H325     H      0.911350000000     0.024650000000     0.353080000000     0.054209   
H326     H      0.879340000000     0.009310000000     0.340850000000     0.0500482  
H327     H      0.824010000000     0.008480000000     0.407590000000     0.0544712  
H328     H      0.832140000000     0.032040000000     0.362410000000     0.0499462  
H329     H      0.748040000000     0.829680000000     0.388560000000     0.0489394  
H330     H      0.728300000000     0.878780000000     0.371730000000     0.0490807  
H331     H      0.690460000000     0.890770000000     0.403210000000     0.054618   
H332     H      0.773140000000     0.829450000000     0.417100000000     0.0537445  
H333     H      0.726890000000     0.813220000000     0.433130000000     0.0536265  
H334     H      0.738060000000     0.844480000000     0.451920000000     0.0508873  
H335     H      0.738520000000     0.909710000000     0.391600000000     0.0543051  
H336     H      0.713060000000     0.894740000000     0.433550000000     0.0507622  
H337     H      0.824660000000     0.881830000000     0.527510000000     0.0507269  
H338     H      0.850920000000     0.833280000000     0.510940000000     0.0507108  
H339     H      0.888050000000     0.846820000000     0.478390000000     0.0544234  
H340     H      0.840870000000     0.901640000000     0.555890000000     0.0540349  
H341     H      0.848820000000     0.923520000000     0.508070000000     0.0538802  
H342     H      0.880570000000     0.912530000000     0.524930000000     0.0493101  
H343     H      0.883390000000     0.826070000000     0.528340000000     0.0542937  
H344     H      0.904970000000     0.867020000000     0.506090000000     0.0492671  
H345     H      0.648610000000     0.263830000000     0.108210000000     0.0464212  
H346     H      0.667160000000     0.251160000000     0.156310000000     0.0463593  
H347     H      0.635920000000     0.266180000000     0.193940000000     0.0543898  
H348     H      0.623590000000     0.241330000000     0.090860000000     0.0540186  
H349     H      0.603550000000     0.286410000000     0.110950000000     0.0537516  
H350     H      0.587870000000     0.255010000000     0.125380000000     0.0555525  
H351     H      0.654970000000     0.219940000000     0.174550000000     0.0531503  
H352     H      0.609900000000     0.241320000000     0.182970000000     0.0549233  
H353     H      0.601160000000     0.465390000000     0.155610000000     0.0552583  
H354     H      0.651180000000     0.449320000000     0.189050000000     0.0542717  
H355     H      0.667600000000     0.405790000000     0.167280000000     0.0527387  
H356     H      0.610430000000     0.481130000000     0.121830000000     0.0535461  
H357     H      0.596230000000     0.430000000000     0.117760000000     0.0541336  
H358     H      0.630510000000     0.437370000000     0.104540000000     0.046464   
H359     H      0.682210000000     0.457350000000     0.169510000000     0.0543633  
H360     H      0.671860000000     0.422750000000     0.132910000000     0.046278   
H361     H      0.651140000000     0.650530000000     0.061110000000     0.0486957  
H362     H      0.694520000000     0.621760000000     0.045300000000     0.048156   
H363     H      0.690800000000     0.572360000000     0.060020000000     0.053697   
H364     H      0.619750000000     0.646550000000     0.040700000000     0.0538894  
H365     H      0.619690000000     0.620110000000     0.087760000000     0.0543177  
H366     H      0.614250000000     0.597830000000     0.056950000000     0.0515858  
H367     H      0.691880000000     0.599570000000     0.013990000000     0.0529545  
H368     H      0.660000000000     0.567640000000     0.038890000000     0.0514146  
H369     H      0.755700000000     0.338420000000     0.415160000000     0.0533395  
H370     H      0.761810000000     0.385550000000     0.453500000000     0.0528501  
H371     H      0.801750000000     0.413130000000     0.437350000000     0.0532633  
H372     H      0.741650000000     0.348030000000     0.380800000000     0.054336   
H373     H      0.793520000000     0.341470000000     0.380720000000     0.0531452  
H374     H      0.782180000000     0.375820000000     0.368880000000     0.0475148  
H375     H      0.750080000000     0.418470000000     0.438410000000     0.0541085  
H376     H      0.786530000000     0.417850000000     0.402340000000     0.047723   
H377     H      0.668370000000     0.347260000000     0.518520000000     0.0524606  
H378     H      0.620690000000     0.382910000000     0.524100000000     0.0528918  
H379     H      0.589200000000     0.370470000000     0.485090000000     0.0540825  
H380     H      0.662690000000     0.311700000000     0.530870000000     0.0543654  
H381     H      0.660580000000     0.316410000000     0.477090000000     0.053656   
H382     H      0.629300000000     0.302740000000     0.492860000000     0.0481284  
H383     H      0.591150000000     0.365050000000     0.538960000000     0.0540117  
H384     H      0.587340000000     0.334350000000     0.497300000000     0.0479028  
H385     H      0.568940000000     0.360230000000     0.313590000000     0.0482746  
H386     H      0.581070000000     0.411920000000     0.300080000000     0.0479269  
H387     H      0.629120000000     0.423020000000     0.311810000000     0.0531692  
H388     H      0.580700000000     0.332150000000     0.290520000000     0.0545312  
H389     H      0.608620000000     0.337540000000     0.335940000000     0.0543392  
H390     H      0.628790000000     0.340960000000     0.303680000000     0.0523335  
H391     H      0.600180000000     0.418330000000     0.267500000000     0.052673   
H392     H      0.641530000000     0.395980000000     0.287850000000     0.0518327  
H393     H      0.482720000000     0.672570000000     0.413710000000     0.0502218  
H394     H      0.461950000000     0.650160000000     0.364080000000     0.0505328  
H395     H      0.478720000000     0.601750000000     0.359700000000     0.0537536  
H396     H      0.465430000000     0.662410000000     0.446350000000     0.0536677  
H397     H      0.510030000000     0.636740000000     0.438950000000     0.0537889  
H398     H      0.480610000000     0.613430000000     0.440860000000     0.0493182  
H399     H      0.433200000000     0.626330000000     0.368110000000     0.0544765  
H400     H      0.461890000000     0.591670000000     0.392630000000     0.0494756  
H401     H      0.565390000000     0.610420000000     0.243100000000     0.0473924  
H402     H      0.565160000000     0.557790000000     0.252440000000     0.0475067  
H403     H      0.609590000000     0.535070000000     0.243650000000     0.0533193  
H404     H      0.582070000000     0.633760000000     0.268290000000     0.0539309  
H405     H      0.609370000000     0.623200000000     0.222510000000     0.0543761  
H406     H      0.627420000000     0.616280000000     0.255440000000     0.0527915  
H407     H      0.578910000000     0.544310000000     0.285690000000     0.0531047  
H408     H      0.626200000000     0.556300000000     0.270700000000     0.0538492  
H409     H      0.644280000000     0.509450000000     0.376590000000     0.0536593  
H410     H      0.590180000000     0.493110000000     0.399680000000     0.0536226  
H411     H      0.598710000000     0.472630000000     0.446950000000     0.0537477  
H412     H      0.657260000000     0.541180000000     0.393020000000     0.0534759  
H413     H      0.678250000000     0.496280000000     0.412880000000     0.0536846  
H414     H      0.661660000000     0.518300000000     0.439350000000     0.0470061  
H415     H      0.578150000000     0.517400000000     0.426620000000     0.0539273  
H416     H      0.615300000000     0.504600000000     0.459090000000     0.0471863  
H417     H      0.597720000000     0.724450000000     0.378560000000     0.05254    
H418     H      0.599480000000     0.704860000000     0.437310000000     0.053129   
H419     H      0.630770000000     0.664420000000     0.438320000000     0.0538584  
H420     H      0.627930000000     0.744250000000     0.368490000000     0.0540885  
H421     H      0.628430000000     0.693950000000     0.350780000000     0.0536879  
H422     H      0.657430000000     0.703010000000     0.373270000000     0.047276   
H423     H      0.630650000000     0.715040000000     0.455640000000     0.0547925  
H424     H      0.658880000000     0.685530000000     0.424690000000     0.0475078  
H425     H      0.854650000000     0.840330000000     0.297310000000     0.047793   
H426     H      0.903420000000     0.839410000000     0.318470000000     0.0483956  
H427     H      0.931650000000     0.873880000000     0.293280000000     0.0547726  
H428     H      0.830110000000     0.865960000000     0.310330000000     0.0529091  
H429     H      0.847870000000     0.877970000000     0.261740000000     0.054122   
H430     H      0.856820000000     0.904550000000     0.287770000000     0.0522122  
H431     H      0.913300000000     0.866330000000     0.343900000000     0.0544187  
H432     H      0.911560000000     0.902840000000     0.307120000000     0.0514339  
H433     H      0.863020000000     0.965440000000     0.121290000000     0.0502606  
H434     H      0.907020000000     0.991310000000     0.142050000000     0.050391   
H435     H      0.895060000000     0.022280000000     0.182690000000     0.0541362  
H436     H      0.848540000000     0.936870000000     0.141980000000     0.0547574  
H437     H      0.822280000000     0.982980000000     0.146500000000     0.0538764  
H438     H      0.834660000000     0.969200000000     0.180170000000     0.0499195  
H439     H      0.921810000000     0.978020000000     0.174850000000     0.0543626  
H440     H      0.880470000000     0.992840000000     0.201940000000     0.0501948  
H441     H      0.479680000000     0.859490000000     0.872950000000     0.0553146  
H442     H      0.494370000000     0.855540000000     0.935760000000     0.0552283  
H443     H      0.523820000000     0.896240000000     0.945730000000     0.053205   
H444     H      0.454620000000     0.886930000000     0.867320000000     0.054117   
H445     H      0.504250000000     0.900850000000     0.855740000000     0.0536962  
H446     H      0.486790000000     0.923440000000     0.881080000000     0.04612    
H447     H      0.474760000000     0.880830000000     0.956130000000     0.0539807  
H448     H      0.497630000000     0.920340000000     0.933080000000     0.0460889  
H449     H      0.573070000000     0.753010000000     0.942880000000     0.0487602  
H450     H      0.620810000000     0.767490000000     0.962430000000     0.0489261  
H451     H      0.656580000000     0.738640000000     0.940220000000     0.0544183  
H452     H      0.561830000000     0.766950000000     0.908830000000     0.0535605  
H453     H      0.576620000000     0.716420000000     0.905880000000     0.0536853  
H454     H      0.597270000000     0.739190000000     0.883530000000     0.0518294  
H455     H      0.642490000000     0.790100000000     0.940930000000     0.0544955  
H456     H      0.649020000000     0.752870000000     0.905280000000     0.0518061  
H457     H      0.768110000000     0.903000000000     0.637670000000     0.0513656  
H458     H      0.754200000000     0.848450000000     0.623320000000     0.0515563  
H459     H      0.775020000000     0.815010000000     0.657810000000     0.0537705  
H460     H      0.751110000000     0.917130000000     0.668880000000     0.0548345  
H461     H      0.800140000000     0.900340000000     0.678050000000     0.0540764  
H462     H      0.774430000000     0.883520000000     0.700220000000     0.0488884  
H463     H      0.727900000000     0.832140000000     0.645080000000     0.0544089  
H464     H      0.758470000000     0.833010000000     0.687250000000     0.0489041  
H465     H      0.651820000000     0.880160000000     0.540640000000     0.0521445  
H466     H      0.650770000000     0.823570000000     0.559670000000     0.0516522  
H467     H      0.616650000000     0.821540000000     0.597960000000     0.05408    
H468     H      0.624400000000     0.889440000000     0.516290000000     0.0544236  
H469     H      0.615710000000     0.907110000000     0.565830000000     0.0532686  
H470     H      0.589640000000     0.882650000000     0.553750000000     0.0481597  
H471     H      0.621690000000     0.803540000000     0.546800000000     0.054587   
H472     H      0.589340000000     0.832190000000     0.573940000000     0.048522   
H473     H      0.591490000000     0.880110000000     0.762480000000     0.0540826  
H474     H      0.649630000000     0.876130000000     0.779990000000     0.0544937  
H475     H      0.656050000000     0.829820000000     0.802910000000     0.0531311  
H476     H      0.583980000000     0.857990000000     0.732150000000     0.0548377  
H477     H      0.569960000000     0.837230000000     0.780440000000     0.0538776  
H478     H      0.592630000000     0.815340000000     0.759260000000     0.046949   
H479     H      0.669280000000     0.853420000000     0.756640000000     0.0527532  
H480     H      0.642830000000     0.812030000000     0.771540000000     0.046733   
H481     H      0.976430000000     0.872780000000     0.633880000000     0.0543762  
H482     H      0.961520000000     0.858020000000     0.694720000000     0.054237   
H483     H      0.979640000000     0.896790000000     0.722820000000     0.0541738  
H484     H      0.952550000000     0.898320000000     0.619630000000     0.0527035  
H485     H      0.997790000000     0.919620000000     0.635350000000     0.0532556  
H486     H      0.967980000000     0.934290000000     0.653160000000     0.0466197  
H487     H      0.932460000000     0.878600000000     0.706390000000     0.0545399  
H488     H      0.958210000000     0.922050000000     0.704300000000     0.0467379  
H489     H      0.147910000000     0.847870000000     0.788540000000     0.0482521  
H490     H      0.100160000000     0.849650000000     0.811750000000     0.0480255  
H491     H      0.097040000000     0.891570000000     0.841330000000     0.0543448  
H492     H      0.153910000000     0.867010000000     0.755660000000     0.0533812  
H493     H      0.175640000000     0.890080000000     0.798220000000     0.0540128  
H494     H      0.150320000000     0.912430000000     0.781220000000     0.0522518  
H495     H      0.073940000000     0.872070000000     0.796400000000     0.054381   
H496     H      0.098710000000     0.914480000000     0.810640000000     0.0519888  
H497     H      0.139080000000     0.781450000000     0.652680000000     0.0514345  
H498     H      0.091810000000     0.762760000000     0.681700000000     0.0521091  
H499     H      0.051290000000     0.789780000000     0.665510000000     0.053193   
H500     H      0.140670000000     0.771290000000     0.615520000000     0.0536519  
H501     H      0.124810000000     0.821860000000     0.624230000000     0.0542262  
H502     H      0.101310000000     0.800580000000     0.603430000000     0.048451   
H503     H      0.069080000000     0.740690000000     0.660850000000     0.0539427  
H504     H      0.057880000000     0.780000000000     0.628770000000     0.0483565  
H505     H      0.163900000000     0.983420000000     0.695000000000     0.0480189  
H506     H      0.167530000000     0.970440000000     0.641760000000     0.0481518  
H507     H      0.123460000000     0.951890000000     0.625400000000     0.0549596  
H508     H      0.149690000000     0.017260000000     0.704920000000     0.0533014  
H509     H      0.117020000000     0.977440000000     0.713970000000     0.0533207  
H510     H      0.103470000000     0.002530000000     0.688510000000     0.0523856  
H511     H      0.153860000000     0.994460000000     0.615300000000     0.0539966  
H512     H      0.106650000000     0.985350000000     0.630920000000     0.052212   
H513     H      0.413750000000     0.113400000000     0.506790000000     0.0468132  
H514     H      0.414320000000     0.163570000000     0.489570000000     0.0470212  
H515     H      0.373980000000     0.172020000000     0.460360000000     0.0548986  
H516     H      0.395190000000     0.104280000000     0.539070000000     0.0528603  
H517     H      0.371580000000     0.087880000000     0.494240000000     0.0529634  
H518     H      0.350650000000     0.111970000000     0.514820000000     0.0540149  
H519     H      0.393960000000     0.189970000000     0.507730000000     0.0542178  
H520     H      0.351170000000     0.169310000000     0.490620000000     0.053836   
H521     H      0.374610000000     0.274290000000     0.675510000000     0.0552474  
H522     H      0.388810000000     0.293470000000     0.614110000000     0.0555582  
H523     H      0.351270000000     0.275300000000     0.585170000000     0.0538318  
H524     H      0.348060000000     0.296910000000     0.689620000000     0.0531929  
H525     H      0.330770000000     0.249600000000     0.671130000000     0.0529826  
H526     H      0.314490000000     0.280120000000     0.655270000000     0.0457861  
H527     H      0.367210000000     0.322930000000     0.604830000000     0.0538916  
H528     H      0.325930000000     0.294600000000     0.605700000000     0.0459125  
H529     H      0.289710000000     0.087530000000     0.640820000000     0.0484156  
H530     H      0.277820000000     0.098480000000     0.587950000000     0.0482883  
H531     H      0.236930000000     0.128590000000     0.583100000000     0.0535665  
H532     H      0.305230000000     0.114950000000     0.662340000000     0.0543588  
H533     H      0.253980000000     0.107420000000     0.671350000000     0.0539846  
H534     H      0.263050000000     0.142930000000     0.661240000000     0.0516466  
H535     H      0.287410000000     0.132280000000     0.573240000000     0.0530219  
H536     H      0.253070000000     0.156200000000     0.603750000000     0.0519925  
H537     H      0.455370000000     0.167210000000     0.699610000000     0.0489713  
H538     H      0.482490000000     0.190400000000     0.656340000000     0.0488278  
H539     H      0.513270000000     0.156560000000     0.631970000000     0.0539723  
H540     H      0.428270000000     0.142530000000     0.691130000000     0.0545209  
H541     H      0.473860000000     0.120090000000     0.706420000000     0.0547393  
H542     H      0.461080000000     0.108600000000     0.672110000000     0.050806   
H543     H      0.470480000000     0.183000000000     0.620480000000     0.0537145  
H544     H      0.484620000000     0.133090000000     0.625230000000     0.0513331  
H545     H      0.595070000000     0.000570000000     0.713090000000     0.0504311  
H546     H      0.646830000000     0.022660000000     0.703900000000     0.0496517  
H547     H      0.665110000000     0.999790000000     0.661430000000     0.0542714  
H548     H      0.567540000000     0.015890000000     0.692230000000     0.0542359  
H549     H      0.581940000000     0.968980000000     0.673660000000     0.0547553  
H550     H      0.587010000000     0.996790000000     0.647810000000     0.0499168  
H551     H      0.649110000000     0.048930000000     0.676090000000     0.0535802  
H552     H      0.638460000000     0.014710000000     0.639090000000     0.0496601  
H553     H      0.605200000000     0.228530000000     0.691530000000     0.0537752  
H554     H      0.596350000000     0.207380000000     0.632240000000     0.0522305  
H555     H      0.636590000000     0.223650000000     0.606410000000     0.0533568  
H556     H      0.627870000000     0.205610000000     0.711480000000     0.0540342  
H557     H      0.651860000000     0.249010000000     0.693800000000     0.0538511  
H558     H      0.666730000000     0.216740000000     0.680180000000     0.0474138  
H559     H      0.617140000000     0.176730000000     0.625280000000     0.0540946  
H560     H      0.659500000000     0.203140000000     0.628680000000     0.0470608  
H561     H      0.776470000000     0.080170000000     0.935410000000     0.049946   
H562     H      0.759640000000     0.134710000000     0.942330000000     0.0510777  
H563     H      0.776050000000     0.164340000000     0.902070000000     0.0539711  
H564     H      0.759260000000     0.060320000000     0.907730000000     0.0536028  
H565     H      0.806560000000     0.078910000000     0.893430000000     0.0539077  
H566     H      0.778810000000     0.090230000000     0.870320000000     0.0494252  
H567     H      0.731130000000     0.146130000000     0.920320000000     0.0550651  
H568     H      0.759480000000     0.141160000000     0.876690000000     0.049781   
H569     H      0.626680000000     0.974250000000     0.867840000000     0.0535994  
H570     H      0.625430000000     0.966950000000     0.930590000000     0.0530719  
H571     H      0.651570000000     0.924150000000     0.939950000000     0.0541843  
H572     H      0.659000000000     0.988840000000     0.855780000000     0.0539086  
H573     H      0.655600000000     0.936350000000     0.848390000000     0.0527197  
H574     H      0.684220000000     0.946960000000     0.870680000000     0.047296   
H575     H      0.657590000000     0.977130000000     0.946870000000     0.0547009  
H576     H      0.682300000000     0.938910000000     0.923960000000     0.0476872  
H577     H      0.590330000000     0.076040000000     0.817210000000     0.0517734  
H578     H      0.639290000000     0.108120000000     0.800150000000     0.0542875  
H579     H      0.624230000000     0.155830000000     0.785720000000     0.0537957  
H580     H      0.576170000000     0.088300000000     0.850580000000     0.0531462  
H581     H      0.551780000000     0.106560000000     0.805510000000     0.0534861  
H582     H      0.563450000000     0.133380000000     0.830230000000     0.0470532  
H583     H      0.649400000000     0.133730000000     0.826770000000     0.0538588  
H584     H      0.606870000000     0.160620000000     0.819590000000     0.0472096  
H585     H      0.570850000000     0.140540000000     0.997440000000     0.0463173  
H586     H      0.564200000000     0.090670000000     0.012350000000     0.0460265  
H587     H      0.604110000000     0.061600000000     0.000980000000     0.0539371  
H588     H      0.590670000000     0.164430000000     0.019470000000     0.0536165  
H589     H      0.615350000000     0.147450000000     0.974670000000     0.0540606  
H590     H      0.633610000000     0.140190000000     0.007430000000     0.0551607  
H591     H      0.578850000000     0.078010000000     0.045550000000     0.0530706  
H592     H      0.625620000000     0.080570000000     0.025880000000     0.0551195  
H593     H      0.886180000000     0.618990000000     0.010440000000     0.0516722  
H594     H      0.835070000000     0.596590000000     0.024650000000     0.0527402  
H595     H      0.803550000000     0.634720000000     0.040280000000     0.0532685  
H596     H      0.887160000000     0.638920000000     0.977570000000     0.0538949  
H597     H      0.884530000000     0.669080000000     0.022610000000     0.0542219  
H598     H      0.856990000000     0.675160000000     0.997310000000     0.0488999  
H599     H      0.808030000000     0.602100000000     0.998670000000     0.0541666  
H600     H      0.809250000000     0.653410000000     0.007090000000     0.0487549  
H601     H      0.920790000000     0.757880000000     0.163920000000     0.0503546  
H602     H      0.893310000000     0.780260000000     0.118020000000     0.0506968  
H603     H      0.846620000000     0.760990000000     0.118380000000     0.0540197  
H604     H      0.914410000000     0.774340000000     0.198140000000     0.0536981  
H605     H      0.889330000000     0.728690000000     0.192950000000     0.0536267  
H606     H      0.866220000000     0.758190000000     0.197670000000     0.0490913  
H607     H      0.869610000000     0.808540000000     0.125890000000     0.0549419  
H608     H      0.839380000000     0.777030000000     0.152630000000     0.049397   
H609     H      0.775450000000     0.580560000000     0.134270000000     0.0539618  
H610     H      0.751730000000     0.634990000000     0.154430000000     0.0543572  
H611     H      0.732070000000     0.625630000000     0.201790000000     0.0532615  
H612     H      0.807250000000     0.572610000000     0.152480000000     0.0537778  
H613     H      0.765480000000     0.546520000000     0.172030000000     0.0538143  
H614     H      0.784050000000     0.567270000000     0.198160000000     0.0467712  
H615     H      0.773390000000     0.651190000000     0.181130000000     0.0536515  
H616     H      0.764930000000     0.613230000000     0.215020000000     0.0466765  
H617     H      0.361830000000     0.228320000000     0.172660000000     0.0549322  
H618     H      0.399230000000     0.224890000000     0.123540000000     0.0535443  
H619     H      0.381960000000     0.186200000000     0.094170000000     0.0529608  
H620     H      0.329890000000     0.245830000000     0.164030000000     0.0553379  
H621     H      0.325430000000     0.192970000000     0.165320000000     0.0529927  
H622     H      0.316570000000     0.208300000000     0.131110000000     0.0469129  
H623     H      0.384330000000     0.239830000000     0.091620000000     0.0531211  
H624     H      0.349050000000     0.203540000000     0.089420000000     0.0464094  
H625     H      0.382600000000     0.382990000000     0.018550000000     0.0523517  
H626     H      0.324360000000     0.385180000000     0.025750000000     0.0524639  
H627     H      0.303040000000     0.357870000000     0.986920000000     0.0529258  
H628     H      0.397740000000     0.349690000000     0.028530000000     0.0543821  
H629     H      0.391500000000     0.355850000000     0.975010000000     0.0542264  
H630     H      0.374310000000     0.325240000000     0.989640000000     0.0481098  
H631     H      0.309540000000     0.353300000000     0.040110000000     0.0534351  
H632     H      0.322000000000     0.326710000000     0.997240000000     0.0476454  
H633     H      0.451960000000     0.358570000000     0.213410000000     0.0474684  
H634     H      0.457000000000     0.400490000000     0.179370000000     0.0474884  
H635     H      0.495820000000     0.393270000000     0.147070000000     0.0549034  
H636     H      0.434680000000     0.327070000000     0.201120000000     0.0533981  
H637     H      0.486310000000     0.322070000000     0.203710000000     0.0539855  
H638     H      0.472800000000     0.316360000000     0.168180000000     0.0527785  
H639     H      0.443900000000     0.397680000000     0.143270000000     0.053851   
H640     H      0.479440000000     0.363190000000     0.130720000000     0.0533453  
H641     H      0.968980000000     0.413490000000     0.456260000000     0.047476   
H642     H      0.947560000000     0.427550000000     0.408900000000     0.0473191  
H643     H      0.971950000000     0.405170000000     0.369470000000     0.0536819  
H644     H      0.959470000000     0.380390000000     0.472720000000     0.0537313  
H645     H      0.006620000000     0.379740000000     0.450390000000     0.0547158  
H646     H      0.983700000000     0.353830000000     0.435150000000     0.0531749  
H647     H      0.923890000000     0.403810000000     0.391240000000     0.0534724  
H648     H      0.960980000000     0.370540000000     0.380610000000     0.0528989  
H649     H      0.095090000000     0.503910000000     0.401970000000     0.0553333  
H650     H      0.148250000000     0.480240000000     0.378010000000     0.054313   
H651     H      0.183300000000     0.495600000000     0.411640000000     0.0539873  
H652     H      0.082860000000     0.482210000000     0.431010000000     0.0533092  
H653     H      0.107070000000     0.526490000000     0.447500000000     0.0527204  
H654     H      0.122300000000     0.494250000000     0.460750000000     0.0461945  
H655     H      0.158620000000     0.449690000000     0.398130000000     0.0531508  
H656     H      0.166920000000     0.477070000000     0.440850000000     0.0462373  
H657     H      0.087790000000     0.281890000000     0.369010000000     0.05286    
H658     H      0.088790000000     0.296160000000     0.429920000000     0.0522281  
H659     H      0.128820000000     0.272180000000     0.449390000000     0.0542121  
H660     H      0.111860000000     0.302670000000     0.348460000000     0.0538381  
H661     H      0.128920000000     0.253690000000     0.358720000000     0.0541706  
H662     H      0.151190000000     0.281130000000     0.372290000000     0.047717   
H663     H      0.114280000000     0.322600000000     0.438040000000     0.0538252  
H664     H      0.151940000000     0.291330000000     0.426120000000     0.0476468  
H665     H      0.130860000000     0.581710000000     0.283450000000     0.052974   
H666     H      0.121890000000     0.640670000000     0.294690000000     0.0526569  
H667     H      0.073990000000     0.649910000000     0.282090000000     0.0543704  
H668     H      0.117970000000     0.558940000000     0.311360000000     0.0532983  
H669     H      0.086760000000     0.560630000000     0.268600000000     0.0527295  
H670     H      0.070330000000     0.572490000000     0.301170000000     0.0478265  
H671     H      0.103170000000     0.647070000000     0.327360000000     0.0546122  
H672     H      0.061750000000     0.625150000000     0.308580000000     0.0479767  
H673     H      0.960850000000     0.586450000000     0.121350000000     0.0480272  
H674     H      0.946760000000     0.583620000000     0.173890000000     0.0479311  
H675     H      0.974340000000     0.615840000000     0.202940000000     0.0537601  
H676     H      0.947800000000     0.614840000000     0.099380000000     0.0533465  
H677     H      0.997430000000     0.621170000000     0.113760000000     0.0549714  
H678     H      0.975520000000     0.649460000000     0.125970000000     0.0522743  
H679     H      0.924320000000     0.610360000000     0.188640000000     0.0537661  
H680     H      0.960610000000     0.646150000000     0.184440000000     0.0520711  
H681     H      0.185570000000     0.892400000000     0.016100000000     0.0500572  
H682     H      0.178260000000     0.841880000000     0.989180000000     0.0493502  
H683     H      0.135990000000     0.821910000000     0.008160000000     0.0545103  
H684     H      0.167370000000     0.922180000000     0.001080000000     0.0543249  
H685     H      0.145140000000     0.904920000000     0.045550000000     0.0545271  
H686     H      0.122670000000     0.901600000000     0.014890000000     0.0504415  
H687     H      0.153420000000     0.841460000000     0.960470000000     0.0539218  
H688     H      0.115460000000     0.849960000000     0.993120000000     0.0502178  
H689     H      0.103830000000     0.729950000000     0.177260000000     0.0529666  
H690     H      0.087170000000     0.715510000000     0.119650000000     0.0521152  
H691     H      0.125480000000     0.728500000000     0.088470000000     0.0541541  
H692     H      0.127210000000     0.704630000000     0.192820000000     0.0541128  
H693     H      0.151160000000     0.748260000000     0.174830000000     0.0537383  
H694     H      0.163080000000     0.716150000000     0.158140000000     0.0474375  
H695     H      0.103050000000     0.683590000000     0.106740000000     0.0541882  
H696     H      0.148630000000     0.704880000000     0.107070000000     0.0477502  
H697     H      0.219550000000     0.899220000000     0.196360000000     0.0468762  
H698     H      0.235480000000     0.849130000000     0.199210000000     0.0469766  
H699     H      0.222630000000     0.820530000000     0.157720000000     0.0535381  
H700     H      0.236910000000     0.923850000000     0.173010000000     0.0539637  
H701     H      0.190650000000     0.904750000000     0.154660000000     0.0545704  
H702     H      0.219300000000     0.900530000000     0.130570000000     0.0535708  
H703     H      0.266280000000     0.838220000000     0.180410000000     0.053215   
H704     H      0.242540000000     0.842570000000     0.133940000000     0.0547621  
H705     H      0.036060000000     0.837180000000     0.186350000000     0.0507478  
H706     H      0.014660000000     0.828030000000     0.132470000000     0.0511205  
H707     H      0.989720000000     0.870320000000     0.115490000000     0.054227   
H708     H      0.065070000000     0.860910000000     0.188090000000     0.0543326  
H709     H      0.019150000000     0.883020000000     0.202110000000     0.0549047  
H710     H      0.036860000000     0.900750000000     0.173270000000     0.0494562  
H711     H      0.032900000000     0.844610000000     0.103250000000     0.0541884  
H712     H      0.020070000000     0.891760000000     0.120920000000     0.0495031  
H713     H      0.257720000000     0.350490000000     0.161110000000     0.0555871  
H714     H      0.276420000000     0.406750000000     0.137460000000     0.0552116  
H715     H      0.261780000000     0.441070000000     0.173020000000     0.054046   
H716     H      0.280910000000     0.338830000000     0.188830000000     0.0542324  
H717     H      0.236760000000     0.360670000000     0.207580000000     0.0531836  
H718     H      0.267960000000     0.377530000000     0.220100000000     0.0462802  
H719     H      0.306800000000     0.418600000000     0.156060000000     0.0535404  
H720     H      0.282030000000     0.424220000000     0.200610000000     0.0461568  
H721     H      0.094140000000     0.506430000000     0.157080000000     0.0549055  
H722     H      0.148430000000     0.530940000000     0.176230000000     0.0548623  
H723     H      0.181280000000     0.516650000000     0.139580000000     0.0538348  
H724     H      0.079350000000     0.527460000000     0.128840000000     0.0535388  
H725     H      0.103190000000     0.483250000000     0.111170000000     0.0527697  
H726     H      0.116560000000     0.515590000000     0.096080000000     0.0463296  
H727     H      0.156830000000     0.561700000000     0.155410000000     0.053276   
H728     H      0.161840000000     0.534420000000     0.111940000000     0.0461526  
H729     H      0.130890000000     0.431100000000     0.276250000000     0.0530016  
H730     H      0.118490000000     0.373310000000     0.264010000000     0.0530729  
H731     H      0.069130000000     0.367140000000     0.272840000000     0.0544318  
H732     H      0.120910000000     0.455110000000     0.248150000000     0.0534316  
H733     H      0.087610000000     0.454830000000     0.289440000000     0.0525559  
H734     H      0.072030000000     0.444910000000     0.255770000000     0.0476613  
H735     H      0.101460000000     0.368200000000     0.230100000000     0.0545841  
H736     H      0.060570000000     0.393420000000     0.246270000000     0.0479869  
H737     H      0.072040000000     0.250940000000     0.899200000000     0.0495568  
H738     H      0.102340000000     0.230330000000     0.942280000000     0.0491792  
H739     H      0.135900000000     0.198070000000     0.921560000000     0.053751   
H740     H      0.085790000000     0.280680000000     0.879750000000     0.0538074  
H741     H      0.090060000000     0.236240000000     0.852030000000     0.0542027  
H742     H      0.123370000000     0.251120000000     0.860360000000     0.050956   
H743     H      0.136130000000     0.245440000000     0.947500000000     0.0534582  
H744     H      0.152630000000     0.226270000000     0.902280000000     0.0502934  
H745     H      0.126500000000     0.327440000000     0.079150000000     0.0476793  
H746     H      0.177990000000     0.330460000000     0.069100000000     0.0476069  
H747     H      0.188290000000     0.358550000000     0.026680000000     0.0535722  
H748     H      0.109090000000     0.357140000000     0.095300000000     0.0540277  
H749     H      0.101030000000     0.351610000000     0.041740000000     0.0541099  
H750     H      0.114750000000     0.385400000000     0.052110000000     0.052823   
H751     H      0.196870000000     0.361590000000     0.079680000000     0.0530225  
H752     H      0.173710000000     0.389790000000     0.042690000000     0.0531061  
H753     H      0.038830000000     0.365940000000     0.871180000000     0.0538692  
H754     H      0.019700000000     0.367670000000     0.931800000000     0.0546745  
H755     H      0.046440000000     0.404770000000     0.955610000000     0.0535636  
H756     H      0.025930000000     0.395680000000     0.851300000000     0.0534211  
H757     H      0.075710000000     0.400720000000     0.868430000000     0.053267   
H758     H      0.052760000000     0.428740000000     0.879410000000     0.0463862  
H759     H      0.997650000000     0.397620000000     0.938170000000     0.0547818  
H760     H      0.035200000000     0.430620000000     0.929680000000     0.0466784  
H761     H      0.232780000000     0.376440000000     0.849370000000     0.046243   
H762     H      0.220830000000     0.425160000000     0.865490000000     0.0464171  
H763     H      0.196110000000     0.424590000000     0.910630000000     0.0539187  
H764     H      0.262630000000     0.358700000000     0.863940000000     0.053001   
H765     H      0.216740000000     0.341100000000     0.883110000000     0.0532109  
H766     H      0.240180000000     0.353150000000     0.910430000000     0.0548267  
H767     H      0.241920000000     0.442840000000     0.891860000000     0.0539962  
H768     H      0.225720000000     0.411420000000     0.929700000000     0.0553122  
N1       N      0.373010000000     0.109800000000     0.260620000000    -0.15214    
N2       N      0.349300000000     0.123950000000     0.313310000000    -0.151915   
N3       N      0.479730000000     0.126590000000     0.165500000000    -0.15032    
N4       N      0.536660000000     0.134760000000     0.170990000000    -0.152321   
N5       N      0.681440000000     0.092010000000     0.134190000000    -0.151987   
N6       N      0.739080000000     0.092590000000     0.138600000000    -0.15049    
N7       N      0.114940000000     0.120950000000     0.562420000000    -0.1517     
N8       N      0.124360000000     0.142260000000     0.507400000000    -0.150515   
N9       N      0.247420000000     0.122180000000     0.408810000000    -0.150979   
N10      N      0.195390000000     0.140120000000     0.390410000000    -0.151796   
N11      N      0.112930000000     0.139390000000     0.703420000000    -0.152131   
N12      N      0.105560000000     0.133730000000     0.762480000000    -0.150397   
N13      N      0.856250000000     0.142950000000     0.208180000000    -0.151577   
N14      N      0.875720000000     0.134400000000     0.263800000000    -0.150389   
N15      N      0.988010000000     0.125550000000     0.376990000000    -0.151004   
N16      N      0.037870000000     0.152420000000     0.391040000000    -0.15142    
N17      N      0.350830000000     0.986940000000     0.109990000000    -0.151829   
N18      N      0.367370000000     0.039490000000     0.130850000000    -0.150182   
N19      N      0.887270000000     0.254810000000     0.418600000000    -0.152166   
N20      N      0.880520000000     0.205940000000     0.385420000000    -0.151147   
N21      N      0.851990000000     0.337790000000     0.539780000000    -0.151225   
N22      N      0.841480000000     0.374030000000     0.586000000000    -0.150989   
N23      N      0.911980000000     0.393680000000     0.778330000000    -0.151098   
N24      N      0.871830000000     0.404770000000     0.736390000000    -0.150945   
N25      N      0.859690000000     0.494200000000     0.901230000000    -0.150448   
N26      N      0.869410000000     0.436030000000     0.903660000000    -0.151929   
N27      N      0.903300000000     0.613810000000     0.777210000000    -0.150541   
N28      N      0.892000000000     0.615820000000     0.836130000000    -0.151543   
N29      N      0.840180000000     0.507720000000     0.638190000000    -0.151626   
N30      N      0.873710000000     0.551780000000     0.657520000000    -0.150474   
N31      N      0.917110000000     0.700510000000     0.653820000000    -0.152097   
N32      N      0.890860000000     0.753240000000     0.650980000000    -0.150681   
N33      N      0.699090000000     0.609180000000     0.882230000000    -0.151674   
N34      N      0.755510000000     0.597390000000     0.886330000000    -0.149748   
N35      N      0.878830000000     0.133300000000     0.010800000000    -0.151451   
N36      N      0.852790000000     0.115120000000     0.061020000000    -0.151625   
N37      N      0.908010000000     0.291600000000     0.890560000000    -0.151494   
N38      N      0.883190000000     0.238340000000     0.896160000000    -0.150799   
N39      N      0.950750000000     0.119000000000     0.892500000000    -0.151316   
N40      N      0.004730000000     0.132520000000     0.875860000000    -0.15054    
N41      N      0.506300000000     0.606090000000     0.899070000000    -0.150094   
N42      N      0.560300000000     0.592710000000     0.915360000000    -0.152184   
N43      N      0.348610000000     0.852970000000     0.075740000000    -0.151658   
N44      N      0.363200000000     0.853170000000     0.017660000000    -0.150558   
N45      N      0.407010000000     0.701210000000     0.900430000000    -0.151591   
N46      N      0.385250000000     0.755900000000     0.905340000000    -0.15198    
N47      N      0.363070000000     0.493870000000     0.939060000000    -0.151592   
N48      N      0.385600000000     0.542630000000     0.914680000000    -0.150232   
N49      N      0.155380000000     0.008970000000     0.900480000000    -0.150976   
N50      N      0.129030000000     0.057040000000     0.878050000000    -0.151133   
N51      N      0.264260000000     0.901910000000     0.892310000000    -0.150091   
N52      N      0.320220000000     0.888810000000     0.885420000000    -0.152084   
N53      N      0.370990000000     0.621780000000     0.736850000000    -0.15164    
N54      N      0.393850000000     0.606150000000     0.789700000000    -0.150891   
N55      N      0.354910000000     0.649640000000     0.518430000000    -0.150859   
N56      N      0.366700000000     0.628360000000     0.573130000000    -0.151603   
N57      N      0.292120000000     0.641580000000     0.394500000000    -0.15045    
N58      N      0.243730000000     0.620830000000     0.369470000000    -0.151497   
N59      N      0.140550000000     0.650640000000     0.531220000000    -0.151108   
N60      N      0.152570000000     0.646520000000     0.472430000000    -0.151328   
N61      N      0.058440000000     0.621130000000     0.652500000000    -0.150063   
N62      N      0.010200000000     0.595770000000     0.673150000000    -0.151021   
N63      N      0.200560000000     0.638760000000     0.662670000000    -0.15182    
N64      N      0.255360000000     0.622660000000     0.652260000000    -0.150283   
N65      N      0.695090000000     0.374690000000     0.659970000000    -0.150521   
N66      N      0.739200000000     0.406460000000     0.681470000000    -0.151598   
N67      N      0.389640000000     0.392830000000     0.770620000000    -0.151259   
N68      N      0.385170000000     0.404600000000     0.829410000000    -0.151771   
N69      N      0.493570000000     0.362250000000     0.664560000000    -0.151355   
N70      N      0.547140000000     0.339510000000     0.663980000000    -0.151971   
N71      N      0.364560000000     0.511270000000     0.654750000000    -0.150346   
N72      N      0.380720000000     0.456140000000     0.641070000000    -0.15185    
N73      N      0.378300000000     0.903230000000     0.227190000000    -0.150761   
N74      N      0.411760000000     0.905260000000     0.276200000000    -0.151514   
N75      N      0.548280000000     0.843250000000     0.408960000000    -0.15105    
N76      N      0.498870000000     0.872520000000     0.398610000000    -0.151868   
N77      N      0.368400000000     0.814980000000     0.383150000000    -0.151641   
N78      N      0.371490000000     0.759570000000     0.403740000000    -0.150389   
N79      N      0.385560000000     0.961580000000     0.405510000000    -0.151815   
N80      N      0.363310000000     0.014970000000     0.394700000000    -0.150714   
N81      N      0.873770000000     0.043960000000     0.369100000000    -0.150879   
N82      N      0.863050000000     0.990900000000     0.393890000000    -0.150894   
N83      N      0.706070000000     0.852130000000     0.421830000000    -0.15083    
N84      N      0.758450000000     0.870590000000     0.403500000000    -0.150962   
N85      N      0.868360000000     0.886100000000     0.490470000000    -0.15156    
N86      N      0.860260000000     0.861820000000     0.544570000000    -0.151188   
N87      N      0.613820000000     0.276390000000     0.154950000000    -0.150872   
N88      N      0.637890000000     0.227560000000     0.132470000000    -0.151303   
N89      N      0.630050000000     0.415990000000     0.144480000000    -0.15143    
N90      N      0.644170000000     0.472870000000     0.151040000000    -0.150066   
N91      N      0.653790000000     0.593000000000     0.075820000000    -0.150993   
N92      N      0.655590000000     0.624190000000     0.024660000000    -0.151872   
N93      N      0.799910000000     0.375960000000     0.410410000000    -0.152158   
N94      N      0.742410000000     0.381040000000     0.412940000000    -0.150726   
N95      N      0.625870000000     0.345160000000     0.478730000000    -0.151526   
N96      N      0.629440000000     0.341360000000     0.538510000000    -0.150708   
N97      N      0.622590000000     0.379750000000     0.325410000000    -0.151708   
N98      N      0.589520000000     0.374750000000     0.276310000000    -0.151639   
N99      N      0.496840000000     0.617880000000     0.398880000000    -0.152077   
N100     N      0.447190000000     0.647290000000     0.406760000000    -0.151555   
N101     N      0.615420000000     0.579230000000     0.233200000000    -0.150433   
N102     N      0.580660000000     0.589640000000     0.280050000000    -0.151312   
N103     N      0.638920000000     0.481460000000     0.428890000000    -0.150987   
N104     N      0.615380000000     0.529530000000     0.404050000000    -0.151096   
N105     N      0.627970000000     0.676790000000     0.393760000000    -0.151392   
N106     N      0.624830000000     0.732700000000     0.413310000000    -0.150221   
N107     N      0.890880000000     0.879310000000     0.274950000000    -0.151036   
N108     N      0.870770000000     0.867080000000     0.329730000000    -0.151648   
N109     N      0.856870000000     0.005040000000     0.165660000000    -0.152034   
N110     N      0.886640000000     0.954910000000     0.158030000000    -0.151146   
N111     N      0.516700000000     0.896600000000     0.900000000000    -0.151781   
N112     N      0.463510000000     0.876610000000     0.911500000000    -0.150123   
N113     N      0.618350000000     0.724700000000     0.920610000000    -0.151404   
N114     N      0.601790000000     0.781220000000     0.923950000000    -0.151828   
N115     N      0.790320000000     0.856940000000     0.667590000000    -0.15184    
N116     N      0.737030000000     0.876100000000     0.654390000000    -0.150443   
N117     N      0.617020000000     0.865250000000     0.584510000000    -0.15198    
N118     N      0.626640000000     0.845360000000     0.528860000000    -0.15075    
N119     N      0.612350000000     0.834770000000     0.794690000000    -0.151549   
N120     N      0.627130000000     0.861790000000     0.743710000000    -0.151077   
N121     N      0.991680000000     0.906920000000     0.679430000000    -0.151448   
N122     N      0.942490000000     0.881410000000     0.661350000000    -0.150277   
N123     N      0.137100000000     0.895640000000     0.821140000000    -0.150775   
N124     N      0.112630000000     0.869810000000     0.773330000000    -0.151244   
N125     N      0.087420000000     0.808510000000     0.645720000000    -0.151443   
N126     N      0.107420000000     0.753070000000     0.640340000000    -0.151191   
N127     N      0.115920000000     0.963800000000     0.669570000000    -0.150912   
N128     N      0.152310000000     0.008640000000     0.659380000000    -0.151775   
N129     N      0.366740000000     0.129850000000     0.476540000000    -0.150511   
N130     N      0.393480000000     0.148170000000     0.526310000000    -0.151382   
N131     N      0.342920000000     0.259540000000     0.627730000000    -0.151897   
N132     N      0.365530000000     0.309560000000     0.649050000000    -0.150046   
N133     N      0.242140000000     0.120340000000     0.628540000000    -0.15159    
N134     N      0.298850000000     0.124790000000     0.617550000000    -0.151667   
N135     N      0.495820000000     0.135600000000     0.669170000000    -0.150756   
N136     N      0.446900000000     0.164280000000     0.655180000000    -0.151411   
N137     N      0.624330000000     0.981760000000     0.666030000000    -0.150537   
N138     N      0.607970000000     0.034890000000     0.687140000000    -0.151837   
N139     N      0.643240000000     0.239290000000     0.649370000000    -0.151199   
N140     N      0.616040000000     0.191000000000     0.669260000000    -0.149576   
N141     N      0.793980000000     0.122580000000     0.897480000000    -0.151976   
N142     N      0.742870000000     0.102020000000     0.916510000000    -0.151486   
N143     N      0.651320000000     0.928160000000     0.893810000000    -0.151804   
N144     N      0.653280000000     0.986670000000     0.901750000000    -0.150081   
N145     N      0.587660000000     0.130420000000     0.792530000000    -0.151061   
N146     N      0.615770000000     0.105850000000     0.838510000000    -0.151471   
N147     N      0.616260000000     0.103700000000     0.988110000000    -0.150374   
N148     N      0.586110000000     0.121960000000     0.035650000000    -0.151492   
N149     N      0.844380000000     0.652590000000     0.034300000000    -0.151374   
N150     N      0.848900000000     0.616940000000     0.986710000000    -0.151689   
N151     N      0.866790000000     0.742240000000     0.155190000000    -0.151854   
N152     N      0.894680000000     0.793770000000     0.161310000000    -0.15108    
N153     N      0.745900000000     0.585310000000     0.185460000000    -0.15178    
N154     N      0.790080000000     0.614080000000     0.160380000000    -0.150993   
N155     N      0.355230000000     0.187260000000     0.131270000000    -0.152448   
N156     N      0.361200000000     0.245960000000     0.130820000000    -0.150258   
N157     N      0.347020000000     0.358470000000     0.978510000000    -0.151905   
N158     N      0.354250000000     0.354730000000     0.038000000000    -0.150952   
N159     N      0.494280000000     0.355160000000     0.172720000000    -0.150495   
N160     N      0.436780000000     0.361700000000     0.170880000000    -0.152155   
N161     N      0.991780000000     0.388380000000     0.407390000000    -0.151183   
N162     N      0.939360000000     0.390240000000     0.432520000000    -0.151635   
N163     N      0.145600000000     0.513990000000     0.427880000000    -0.15139    
N164     N      0.118010000000     0.466080000000     0.407610000000    -0.150615   
N165     N      0.128420000000     0.260110000000     0.404690000000    -0.150782   
N166     N      0.107430000000     0.314170000000     0.393080000000    -0.150554   
N167     N      0.080050000000     0.605680000000     0.272370000000    -0.151117   
N168     N      0.115710000000     0.603870000000     0.319750000000    -0.150764   
N169     N      0.988590000000     0.622110000000     0.159360000000    -0.15135    
N170     N      0.933560000000     0.613930000000     0.143370000000    -0.151823   
N171     N      0.138830000000     0.862460000000     0.029320000000    -0.150703   
N172     N      0.163020000000     0.882430000000     0.978430000000    -0.151385   
N173     N      0.137970000000     0.741290000000     0.131030000000    -0.151118   
N174     N      0.110030000000     0.693610000000     0.151450000000    -0.150878   
N175     N      0.206040000000     0.862170000000     0.149520000000    -0.150403   
N176     N      0.254390000000     0.881950000000     0.175240000000    -0.151587   
N177     N      0.001870000000     0.877480000000     0.159670000000    -0.151155   
N178     N      0.051000000000     0.849550000000     0.145540000000    -0.151732   
N179     N      0.246310000000     0.401180000000     0.188720000000    -0.151271   
N180     N      0.293510000000     0.376050000000     0.165430000000    -0.149947   
N181     N      0.142790000000     0.497050000000     0.127260000000    -0.151686   
N182     N      0.115900000000     0.544560000000     0.149070000000    -0.150895   
N183     N      0.078060000000     0.410490000000     0.284160000000    -0.151159   
N184     N      0.116100000000     0.410530000000     0.238840000000    -0.150834   
N185     N      0.113850000000     0.214660000000     0.884880000000    -0.151454   
N186     N      0.110370000000     0.265530000000     0.915520000000    -0.151975   
N187     N      0.143730000000     0.359350000000     0.030590000000    -0.150384   
N188     N      0.153260000000     0.361210000000     0.089890000000    -0.151634   
N189     N      0.063370000000     0.400560000000     0.912960000000    -0.151455   
N190     N      0.009430000000     0.390370000000     0.894010000000    -0.150669   
N191     N      0.206230000000     0.380660000000     0.903500000000    -0.150708   
N192     N      0.255220000000     0.401060000000     0.879350000000    -0.151294   
O1       O      0.115670000000     0.351730000000     0.991150000000    -0.243018   
O2       O      0.104390000000     0.377080000000     0.904550000000    -0.246229   
O3       O      0.132760000000     0.297210000000     0.945370000000    -0.250576   
O4       O      0.175250000000     0.344860000000     0.913620000000    -0.250253   
O5       O      0.164500000000     0.387160000000     0.926620000000    -0.248331   
O6       O      0.108890000000     0.313890000000     0.910390000000    -0.253303   
O7       O      0.159460000000     0.355750000000     0.984000000000    -0.249829   
O8       O      0.088850000000     0.377860000000     0.947880000000    -0.245748   
O9       O      0.172900000000     0.466510000000     0.149900000000    -0.242893   
O10      O      0.133630000000     0.391350000000     0.196940000000    -0.246187   
O11      O      0.212810000000     0.428940000000     0.167550000000    -0.242128   
O12      O      0.179560000000     0.389330000000     0.119640000000    -0.253542   
O13      O      0.136310000000     0.384910000000     0.129540000000    -0.245119   
O14      O      0.200270000000     0.388870000000     0.185410000000    -0.250181   
O15      O      0.133670000000     0.450000000000     0.135790000000    -0.251761   
O16      O      0.143490000000     0.434660000000     0.206580000000    -0.253929   
O17      O      0.134060000000     0.824860000000     0.060760000000    -0.242415   
O18      O      0.160490000000     0.867280000000     0.135390000000    -0.24314    
O19      O      0.130470000000     0.778760000000     0.100120000000    -0.242989   
O20      O      0.081300000000     0.835270000000     0.110320000000    -0.255481   
O21      O      0.098270000000     0.845380000000     0.151700000000    -0.249142   
O22      O      0.138960000000     0.788030000000     0.144610000000    -0.247504   
O23      O      0.137740000000     0.866740000000     0.078500000000    -0.250021   
O24      O      0.179430000000     0.826270000000     0.130810000000    -0.249207   
O25      O      0.073260000000     0.633590000000     0.232280000000    -0.241633   
O26      O      0.099800000000     0.661710000000     0.187430000000    -0.24714    
O27      O      0.023730000000     0.618400000000     0.192690000000    -0.251144   
O28      O      0.115640000000     0.588900000000     0.169870000000    -0.250977   
O29      O      0.076470000000     0.570390000000     0.158360000000    -0.24928    
O30      O      0.034920000000     0.620120000000     0.148090000000    -0.246874   
O31      O      0.080060000000     0.588960000000     0.225890000000    -0.25032    
O32      O      0.087670000000     0.651130000000     0.144370000000    -0.24872    
O33      O      0.022420000000     0.398790000000     0.370740000000    -0.250312   
O34      O      0.116580000000     0.422300000000     0.385500000000    -0.249093   
O35      O      0.069470000000     0.381670000000     0.323160000000    -0.241132   
O36      O      0.094810000000     0.359400000000     0.406420000000    -0.246502   
O37      O      0.092250000000     0.348480000000     0.361690000000    -0.246419   
O38      O      0.079840000000     0.425230000000     0.331320000000    -0.250271   
O39      O      0.039140000000     0.386190000000     0.411520000000    -0.249917   
O40      O      0.078130000000     0.440500000000     0.399870000000    -0.250167   
O41      O      0.380940000000     0.344770000000     0.077870000000    -0.245681   
O42      O      0.399180000000     0.332420000000     0.164660000000    -0.254096   
O43      O      0.375840000000     0.287800000000     0.110190000000    -0.249765   
O44      O      0.320500000000     0.337070000000     0.155560000000    -0.24243    
O45      O      0.334950000000     0.377570000000     0.140730000000    -0.24823    
O46      O      0.348180000000     0.290250000000     0.146320000000    -0.241422   
O47      O      0.336700000000     0.345210000000     0.083000000000    -0.252422   
O48      O      0.403390000000     0.367720000000     0.135990000000    -0.248485   
O49      O      0.851700000000     0.709710000000     0.121670000000    -0.250134   
O50      O      0.891360000000     0.632680000000     0.156290000000    -0.247273   
O51      O      0.871400000000     0.665090000000     0.073170000000    -0.243425   
O52      O      0.814580000000     0.654830000000     0.150540000000    -0.250058   
O53      O      0.832180000000     0.615110000000     0.137160000000    -0.248435   
O54      O      0.831160000000     0.647270000000     0.081470000000    -0.250915   
O55      O      0.873690000000     0.694170000000     0.158530000000    -0.251985   
O56      O      0.903750000000     0.636140000000     0.112040000000    -0.248823   
O57      O      0.657030000000     0.026490000000     0.930180000000    -0.240795   
O58      O      0.616930000000     0.081470000000     0.881460000000    -0.250711   
O59      O      0.709330000000     0.067420000000     0.912340000000    -0.251045   
O60      O      0.634190000000     0.068710000000     0.959020000000    -0.244971   
O61      O      0.637900000000     0.111740000000     0.944740000000    -0.249047   
O62      O      0.695950000000     0.110260000000     0.918450000000    -0.248321   
O63      O      0.656880000000     0.032100000000     0.884180000000    -0.248602   
O64      O      0.654290000000     0.101900000000     0.867320000000    -0.250721   
O65      O      0.524590000000     0.119790000000     0.705480000000    -0.243547   
O66      O      0.613250000000     0.083440000000     0.689320000000    -0.252205   
O67      O      0.561570000000     0.114620000000     0.754120000000    -0.243806   
O68      O      0.598530000000     0.164050000000     0.706130000000    -0.24096    
O69      O      0.597040000000     0.146430000000     0.663390000000    -0.239245   
O70      O      0.600980000000     0.134010000000     0.745370000000    -0.242022   
O71      O      0.543290000000     0.133880000000     0.666130000000    -0.249076   
O72      O      0.572840000000     0.066350000000     0.696900000000    -0.255342   
O73      O      0.382610000000     0.183450000000     0.558690000000    -0.240732   
O74      O      0.339590000000     0.142940000000     0.635890000000    -0.243829   
O75      O      0.361110000000     0.225840000000     0.597300000000    -0.245753   
O76      O      0.420880000000     0.181210000000     0.617540000000    -0.253711   
O77      O      0.399600000000     0.158310000000     0.650760000000    -0.245055   
O78      O      0.351250000000     0.213270000000     0.640470000000    -0.253814   
O79      O      0.384620000000     0.140460000000     0.574250000000    -0.250755   
O80      O      0.327420000000     0.155390000000     0.593230000000    -0.253419   
O81      O      0.028080000000     0.891960000000     0.707740000000    -0.243269   
O82      O      0.100500000000     0.854300000000     0.656590000000    -0.245371   
O83      O      0.074870000000     0.878460000000     0.744200000000    -0.242751   
O84      O      0.094490000000     0.933600000000     0.701360000000    -0.252976   
O85      O      0.100000000000     0.919170000000     0.657880000000    -0.243509   
O86      O      0.114900000000     0.874730000000     0.724180000000    -0.251703   
O87      O      0.036660000000     0.902860000000     0.663740000000    -0.251992   
O88      O      0.065010000000     0.837120000000     0.678300000000    -0.254406   
O89      O      0.701620000000     0.907630000000     0.664060000000    -0.241798   
O90      O      0.631300000000     0.858750000000     0.631360000000    -0.246023   
O91      O      0.658900000000     0.948210000000     0.661210000000    -0.242048   
O92      O      0.659640000000     0.879070000000     0.712080000000    -0.253865   
O93      O      0.617530000000     0.876530000000     0.697520000000    -0.246183   
O94      O      0.617440000000     0.933720000000     0.669570000000    -0.248883   
O95      O      0.690670000000     0.865160000000     0.651650000000    -0.2499     
O96      O      0.635620000000     0.900230000000     0.612900000000    -0.254036   
O97      O      0.549680000000     0.881150000000     0.867830000000    -0.245241   
O98      O      0.624740000000     0.891060000000     0.910480000000    -0.245606   
O99      O      0.582040000000     0.848660000000     0.830290000000    -0.242879   
O100     O      0.578730000000     0.813190000000     0.895370000000    -0.254168   
O101     O      0.618520000000     0.825380000000     0.911930000000    -0.247418   
O102     O      0.624990000000     0.843170000000     0.841560000000    -0.249608   
O103     O      0.559240000000     0.878720000000     0.912910000000    -0.25116    
O104     O      0.624030000000     0.900010000000     0.865170000000    -0.252262   
O105     O      0.969050000000     0.880250000000     0.195630000000    -0.243006   
O106     O      0.884220000000     0.906270000000     0.162380000000    -0.243645   
O107     O      0.925790000000     0.877240000000     0.241070000000    -0.243393   
O108     O      0.894310000000     0.842410000000     0.156100000000    -0.243777   
O109     O      0.916690000000     0.824750000000     0.191850000000    -0.253883   
O110     O      0.883620000000     0.878330000000     0.226140000000    -0.253866   
O111     O      0.954950000000     0.874050000000     0.152160000000    -0.252608   
O112     O      0.919220000000     0.927630000000     0.181080000000    -0.253075   
O113     O      0.579590000000     0.619860000000     0.319030000000    -0.241971   
O114     O      0.618520000000     0.572180000000     0.380130000000    -0.249645   
O115     O      0.528700000000     0.603710000000     0.364960000000    -0.251943   
O116     O      0.606640000000     0.634360000000     0.404000000000    -0.247638   
O117     O      0.604190000000     0.649860000000     0.360640000000    -0.245886   
O118     O      0.544090000000     0.620650000000     0.404630000000    -0.251358   
O119     O      0.580460000000     0.575010000000     0.327180000000    -0.249983   
O120     O      0.578830000000     0.560090000000     0.397130000000    -0.250183   
O121     O      0.702890000000     0.405110000000     0.425970000000    -0.245685   
O122     O      0.644100000000     0.407900000000     0.359060000000    -0.254488   
O123     O      0.667050000000     0.446030000000     0.411500000000    -0.243033   
O124     O      0.621210000000     0.381610000000     0.446150000000    -0.243989   
O125     O      0.657670000000     0.355690000000     0.443510000000    -0.250823   
O126     O      0.627130000000     0.434210000000     0.428330000000    -0.244419   
O127     O      0.698950000000     0.371660000000     0.394820000000    -0.2482     
O128     O      0.631910000000     0.366190000000     0.372070000000    -0.251474   
O129     O      0.673430000000     0.508540000000     0.166090000000    -0.241386   
O130     O      0.640830000000     0.588880000000     0.123460000000    -0.246585   
O131     O      0.715370000000     0.552460000000     0.167100000000    -0.245025   
O132     O      0.639460000000     0.548590000000     0.204050000000    -0.252131   
O133     O      0.637060000000     0.592150000000     0.190850000000    -0.242698   
O134     O      0.699050000000     0.592590000000     0.180820000000    -0.25239    
O135     O      0.636470000000     0.520340000000     0.142990000000    -0.249891   
O136     O      0.677240000000     0.566590000000     0.109500000000    -0.253739   
O137     O      0.581510000000     0.343160000000     0.239490000000    -0.245272   
O138     O      0.625110000000     0.379200000000     0.176620000000    -0.249128   
O139     O      0.533590000000     0.336740000000     0.193700000000    -0.250544   
O140     O      0.607610000000     0.309120000000     0.191150000000    -0.247564   
O141     O      0.589850000000     0.318260000000     0.149880000000    -0.253267   
O142     O      0.538250000000     0.373160000000     0.166530000000    -0.243414   
O143     O      0.589070000000     0.386600000000     0.228290000000    -0.252152   
O144     O      0.589070000000     0.392580000000     0.152920000000    -0.242277   
O145     O      0.788870000000     0.908120000000     0.398700000000    -0.243329   
O146     O      0.844330000000     0.913030000000     0.457740000000    -0.253941   
O147     O      0.830830000000     0.956870000000     0.406600000000    -0.243349   
O148     O      0.836400000000     0.887260000000     0.356970000000    -0.253177   
O149     O      0.876460000000     0.881980000000     0.376630000000    -0.241891   
O150     O      0.870720000000     0.942950000000     0.391660000000    -0.252828   
O151     O      0.805090000000     0.868020000000     0.412950000000    -0.252283   
O152     O      0.865970000000     0.876410000000     0.441900000000    -0.245154   
O153     O      0.469120000000     0.889670000000     0.363940000000    -0.249716   
O154     O      0.395630000000     0.842230000000     0.353410000000    -0.249237   
O155     O      0.424210000000     0.876520000000     0.314150000000    -0.243918   
O156     O      0.421390000000     0.934740000000     0.387620000000    -0.250349   
O157     O      0.380330000000     0.917000000000     0.386200000000    -0.245705   
O158     O      0.405750000000     0.916840000000     0.323830000000    -0.252284   
O159     O      0.451380000000     0.869400000000     0.400870000000    -0.253396   
O160     O      0.387560000000     0.857760000000     0.396040000000    -0.244473   
O161     O      0.626890000000     0.766430000000     0.449190000000    -0.242764   
O162     O      0.658300000000     0.854440000000     0.420970000000    -0.243943   
O163     O      0.626050000000     0.809990000000     0.494530000000    -0.242566   
O164     O      0.576320000000     0.821960000000     0.442540000000    -0.25334    
O165     O      0.596060000000     0.842340000000     0.406580000000    -0.244237   
O166     O      0.625680000000     0.853290000000     0.480130000000    -0.252307   
O167     O      0.626750000000     0.780780000000     0.405240000000    -0.250994   
O168     O      0.677240000000     0.816650000000     0.437710000000    -0.253231   
O169     O      0.405890000000     0.365490000000     0.733080000000    -0.246128   
O170     O      0.388830000000     0.351750000000     0.643280000000    -0.24445    
O171     O      0.459700000000     0.388210000000     0.687780000000    -0.248872   
O172     O      0.415180000000     0.426530000000     0.657410000000    -0.249918   
O173     O      0.373020000000     0.412290000000     0.661230000000    -0.248411   
O174     O      0.446810000000     0.354660000000     0.659750000000    -0.25216    
O175     O      0.393860000000     0.408330000000     0.723970000000    -0.253177   
O176     O      0.380280000000     0.337790000000     0.686460000000    -0.246161   
O177     O      0.633070000000     0.274540000000     0.616680000000    -0.244551   
O178     O      0.593540000000     0.350660000000     0.659850000000    -0.250417   
O179     O      0.646240000000     0.320020000000     0.579550000000    -0.246992   
O180     O      0.655250000000     0.369510000000     0.633060000000    -0.249342   
O181     O      0.668830000000     0.334060000000     0.658280000000    -0.246203   
O182     O      0.610400000000     0.346780000000     0.583610000000    -0.249444   
O183     O      0.638640000000     0.286350000000     0.661000000000    -0.246065   
O184     O      0.577920000000     0.315980000000     0.634800000000    -0.253406   
O185     O      0.134920000000     0.719570000000     0.617980000000    -0.248118   
O186     O      0.158350000000     0.630710000000     0.641060000000    -0.248625   
O187     O      0.112950000000     0.665350000000     0.568960000000    -0.246403   
O188     O      0.086520000000     0.636350000000     0.615490000000    -0.246215   
O189     O      0.098690000000     0.646580000000     0.658800000000    -0.244741   
O190     O      0.155070000000     0.654070000000     0.578190000000    -0.25306    
O191     O      0.099330000000     0.705130000000     0.641300000000    -0.251875   
O192     O      0.171580000000     0.673900000000     0.646150000000    -0.249123   
O193     O      0.212370000000     0.587480000000     0.385360000000    -0.243074   
O194     O      0.136080000000     0.627660000000     0.429910000000    -0.244388   
O195     O      0.174160000000     0.546310000000     0.405480000000    -0.242151   
O196     O      0.142090000000     0.579010000000     0.352280000000    -0.253944   
O197     O      0.133000000000     0.622460000000     0.362050000000    -0.24571    
O198     O      0.135080000000     0.561140000000     0.421940000000    -0.251595   
O199     O      0.197720000000     0.629930000000     0.378160000000    -0.251143   
O200     O      0.177960000000     0.617970000000     0.442280000000    -0.25358    
O201     O      0.363810000000     0.725790000000     0.438760000000    -0.242408   
O202     O      0.337000000000     0.636290000000     0.410580000000    -0.243749   
O203     O      0.362770000000     0.683770000000     0.483730000000    -0.242665   
O204     O      0.416490000000     0.668340000000     0.437950000000    -0.254332   
O205     O      0.400050000000     0.649920000000     0.399300000000    -0.246681   
O206     O      0.358080000000     0.640560000000     0.470020000000    -0.25128    
O207     O      0.372750000000     0.711550000000     0.395730000000    -0.250265   
O208     O      0.319180000000     0.678020000000     0.411640000000    -0.251634   
O209     O      0.289610000000     0.588520000000     0.651770000000    -0.242796   
O210     O      0.349890000000     0.594050000000     0.603420000000    -0.254028   
O211     O      0.330970000000     0.546090000000     0.656170000000    -0.242313   
O212     O      0.336860000000     0.605760000000     0.706520000000    -0.254019   
O213     O      0.376070000000     0.616800000000     0.687740000000    -0.245958   
O214     O      0.373660000000     0.559070000000     0.653770000000    -0.249489   
O215     O      0.302050000000     0.632160000000     0.655130000000    -0.249601   
O216     O      0.359110000000     0.634740000000     0.621770000000    -0.245383   
O217     O      0.186100000000     0.973310000000     0.888740000000    -0.245369   
O218     O      0.164950000000     0.881280000000     0.928810000000    -0.248239   
O219     O      0.228550000000     0.932470000000     0.903680000000    -0.244191   
O220     O      0.175700000000     0.909620000000     0.846420000000    -0.249087   
O221     O      0.137400000000     0.906110000000     0.869660000000    -0.247319   
O222     O      0.218130000000     0.892200000000     0.884940000000    -0.246957   
O223     O      0.147430000000     0.961590000000     0.908370000000    -0.248504   
O224     O      0.174000000000     0.920590000000     0.949980000000    -0.251353   
O225     O      0.330010000000     0.463360000000     0.921190000000    -0.242881   
O226     O      0.367540000000     0.386830000000     0.871850000000    -0.246552   
O227     O      0.289980000000     0.428360000000     0.898920000000    -0.242285   
O228     O      0.321340000000     0.386490000000     0.948110000000    -0.253726   
O229     O      0.364890000000     0.382560000000     0.939600000000    -0.245794   
O230     O      0.300550000000     0.386570000000     0.883940000000    -0.249783   
O231     O      0.371110000000     0.447160000000     0.927950000000    -0.251229   
O232     O      0.357670000000     0.429790000000     0.860620000000    -0.254851   
O233     O      0.394220000000     0.844410000000     0.981040000000    -0.241829   
O234     O      0.357730000000     0.886760000000     0.916050000000    -0.249399   
O235     O      0.373410000000     0.791850000000     0.936590000000    -0.25153    
O236     O      0.430210000000     0.859370000000     0.942320000000    -0.244545   
O237     O      0.419220000000     0.864250000000     0.897850000000    -0.247031   
O238     O      0.395490000000     0.802910000000     0.898210000000    -0.250958   
O239     O      0.351460000000     0.850790000000     0.969710000000    -0.249251   
O240     O      0.344360000000     0.848130000000     0.895840000000    -0.25128    
O241     O      0.471260000000     0.607690000000     0.865330000000    -0.241864   
O242     O      0.382800000000     0.588420000000     0.897490000000    -0.242524   
O243     O      0.428670000000     0.612640000000     0.823120000000    -0.242492   
O244     O      0.423950000000     0.666880000000     0.870190000000    -0.25561    
O245     O      0.402200000000     0.653090000000     0.907920000000    -0.247893   
O246     O      0.387010000000     0.607810000000     0.838590000000    -0.250891   
O247     O      0.460320000000     0.613080000000     0.909930000000    -0.248779   
O248     O      0.422500000000     0.567730000000     0.896570000000    -0.250521   
O249     O      0.873870000000     0.165050000000     0.973470000000    -0.243645   
O250     O      0.905470000000     0.132700000000     0.884290000000    -0.242754   
O251     O      0.870350000000     0.204120000000     0.928910000000    -0.241719   
O252     O      0.824560000000     0.157260000000     0.911260000000    -0.255497   
O253     O      0.840930000000     0.115680000000     0.903970000000    -0.249055   
O254     O      0.887840000000     0.190400000000     0.888700000000    -0.249815   
O255     O      0.878060000000     0.120830000000     0.963090000000    -0.248333   
O256     O      0.921630000000     0.136270000000     0.927310000000    -0.250853   
O257     O      0.645780000000     0.688410000000     0.937630000000    -0.247387   
O258     O      0.602020000000     0.613110000000     0.903310000000    -0.248136   
O259     O      0.627780000000     0.643010000000     0.989230000000    -0.248395   
O260     O      0.663020000000     0.600980000000     0.913560000000    -0.246062   
O261     O      0.672530000000     0.644230000000     0.902790000000    -0.248837   
O262     O      0.662920000000     0.618390000000     0.976060000000    -0.251392   
O263     O      0.606280000000     0.677580000000     0.919400000000    -0.252331   
O264     O      0.590210000000     0.613010000000     0.947880000000    -0.250175   
O265     O      0.868770000000     0.787060000000     0.623410000000    -0.242863   
O266     O      0.835660000000     0.869180000000     0.658020000000    -0.247444   
O267     O      0.875650000000     0.831340000000     0.579950000000    -0.244829   
O268     O      0.913040000000     0.865830000000     0.625760000000    -0.25125    
O269     O      0.900710000000     0.859130000000     0.669690000000    -0.242562   
O270     O      0.855020000000     0.869600000000     0.593060000000    -0.251787   
O271     O      0.892650000000     0.801140000000     0.659690000000    -0.249729   
O272     O      0.822270000000     0.827300000000     0.646670000000    -0.253323   
O273     O      0.929500000000     0.599030000000     0.738510000000    -0.246157   
O274     O      0.881640000000     0.591760000000     0.684700000000    -0.249588   
O275     O      0.975150000000     0.611400000000     0.702880000000    -0.244661   
O276     O      0.934830000000     0.668740000000     0.686470000000    -0.253033   
O277     O      0.907770000000     0.652600000000     0.653740000000    -0.251629   
O278     O      0.964730000000     0.600570000000     0.659270000000    -0.244902   
O279     O      0.900540000000     0.633030000000     0.731790000000    -0.247546   
O280     O      0.914900000000     0.576350000000     0.658360000000    -0.244463   
O281     O      0.836600000000     0.533360000000     0.883830000000    -0.2454     
O282     O      0.826630000000     0.590460000000     0.952350000000    -0.254143   
O283     O      0.792020000000     0.567720000000     0.896870000000    -0.24377    
O284     O      0.852830000000     0.616570000000     0.864430000000    -0.245717   
O285     O      0.882630000000     0.583700000000     0.872050000000    -0.251017   
O286     O      0.801240000000     0.611300000000     0.887260000000    -0.244536   
O287     O      0.863360000000     0.539010000000     0.920430000000    -0.248622   
O288     O      0.865090000000     0.609950000000     0.940520000000    -0.250617   
O289     O      0.915950000000     0.363520000000     0.817020000000    -0.245492   
O290     O      0.880960000000     0.402030000000     0.870240000000    -0.250372   
O291     O      0.976330000000     0.384820000000     0.858580000000    -0.249878   
O292     O      0.928150000000     0.325130000000     0.861380000000    -0.248074   
O293     O      0.903620000000     0.339810000000     0.896820000000    -0.250861   
O294     O      0.962840000000     0.384750000000     0.902500000000    -0.247765   
O295     O      0.923500000000     0.407900000000     0.824250000000    -0.248173   
O296     O      0.910810000000     0.411970000000     0.903020000000    -0.246155   
O297     O      0.882400000000     0.337760000000     0.501600000000    -0.243725   
O298     O      0.836000000000     0.375980000000     0.442700000000    -0.249252   
O299     O      0.866790000000     0.285110000000     0.451190000000    -0.251586   
O300     O      0.915050000000     0.359190000000     0.461130000000    -0.245402   
O301     O      0.896440000000     0.372130000000     0.421260000000    -0.248459   
O302     O      0.890670000000     0.303350000000     0.417030000000    -0.25333    
O303     O      0.838800000000     0.336190000000     0.492230000000    -0.249023   
O304     O      0.830880000000     0.339260000000     0.415820000000    -0.250899   
O305     O      0.815750000000     0.473820000000     0.663150000000    -0.244159   
O306     O      0.854760000000     0.396550000000     0.627810000000    -0.246729   
O307     O      0.773630000000     0.432170000000     0.659280000000    -0.24452    
O308     O      0.850510000000     0.435360000000     0.704740000000    -0.252246   
O309     O      0.847670000000     0.390820000000     0.696000000000    -0.246683   
O310     O      0.785810000000     0.396960000000     0.685730000000    -0.25002    
O311     O      0.848200000000     0.459800000000     0.634790000000    -0.250286   
O312     O      0.811490000000     0.396300000000     0.617160000000    -0.252576   
O313     O      0.321370000000     0.954110000000     0.130150000000    -0.244624   
O314     O      0.363240000000     0.874940000000     0.117360000000    -0.244569   
O315     O      0.285620000000     0.915790000000     0.160220000000    -0.242921   
O316     O      0.349730000000     0.925130000000     0.194420000000    -0.253431   
O317     O      0.366760000000     0.884660000000     0.182860000000    -0.24554    
O318     O      0.300150000000     0.872950000000     0.165210000000    -0.251223   
O319     O      0.364240000000     0.942670000000     0.125160000000    -0.252581   
O320     O      0.321120000000     0.881540000000     0.103770000000    -0.253052   
O321     O      0.910770000000     0.129770000000     0.297250000000    -0.243222   
O322     O      0.880120000000     0.157000000000     0.385900000000    -0.243651   
O323     O      0.954550000000     0.123920000000     0.341560000000    -0.24206    
O324     O      0.906120000000     0.075020000000     0.351260000000    -0.25362    
O325     O      0.869910000000     0.092730000000     0.371260000000    -0.244112   
O326     O      0.941130000000     0.127600000000     0.385570000000    -0.252501   
O327     O      0.868790000000     0.132080000000     0.312640000000    -0.251988   
O328     O      0.902300000000     0.178040000000     0.351880000000    -0.253819   
O329     O      0.039510000000     0.132650000000     0.841810000000    -0.242794   
O330     O      0.090650000000     0.185640000000     0.853400000000    -0.252384   
O331     O      0.079640000000     0.120750000000     0.802010000000    -0.244962   
O332     O      0.091660000000     0.087220000000     0.875700000000    -0.250744   
O333     O      0.130190000000     0.101800000000     0.858180000000    -0.249336   
O334     O      0.115430000000     0.147030000000     0.808920000000    -0.247825   
O335     O      0.051290000000     0.133340000000     0.886450000000    -0.248455   
O336     O      0.114750000000     0.165740000000     0.886570000000    -0.248312   
O337     O      0.123670000000     0.222470000000     0.435940000000    -0.241449   
O338     O      0.068660000000     0.166650000000     0.425840000000    -0.255384   
O339     O      0.119860000000     0.178330000000     0.474260000000    -0.242171   
O340     O      0.149220000000     0.134070000000     0.401940000000    -0.244223   
O341     O      0.166790000000     0.175700000000     0.405950000000    -0.253573   
O342     O      0.123480000000     0.135670000000     0.458410000000    -0.249902   
O343     O      0.121760000000     0.213970000000     0.390460000000    -0.24791    
O344     O      0.085130000000     0.156320000000     0.384250000000    -0.247831   
O345     O      0.156670000000     0.044920000000     0.626500000000    -0.246146   
O346     O      0.133310000000     0.130170000000     0.607080000000    -0.24944    
O347     O      0.205780000000     0.103170000000     0.655590000000    -0.249278   
O348     O      0.151720000000     0.132580000000     0.675500000000    -0.248115   
O349     O      0.116310000000     0.105920000000     0.667650000000    -0.250056   
O350     O      0.198050000000     0.113080000000     0.611330000000    -0.254359   
O351     O      0.154510000000     0.055820000000     0.671270000000    -0.251296   
O352     O      0.135810000000     0.087450000000     0.591150000000    -0.244588   
O353     O      0.779710000000     0.089460000000     0.164520000000    -0.242377   
O354     O      0.836880000000     0.123550000000     0.106920000000    -0.249617   
O355     O      0.823310000000     0.034640000000     0.147130000000    -0.251112   
O356     O      0.821490000000     0.118370000000     0.185360000000    -0.2456     
O357     O      0.862560000000     0.115920000000     0.167530000000    -0.245785   
O358     O      0.860490000000     0.053520000000     0.163460000000    -0.25258    
O359     O      0.782330000000     0.088250000000     0.118370000000    -0.250578   
O360     O      0.845510000000     0.080460000000     0.094970000000    -0.2515     
O361     O      0.617910000000     0.192160000000     0.105560000000    -0.241747   
O362     O      0.644110000000     0.117460000000     0.151260000000    -0.246251   
O363     O      0.600250000000     0.153880000000     0.070040000000    -0.241995   
O364     O      0.568220000000     0.160670000000     0.145030000000    -0.255781   
O365     O      0.575910000000     0.116180000000     0.150020000000    -0.248847   
O366     O      0.591920000000     0.111110000000     0.083510000000    -0.248499   
O367     O      0.633800000000     0.181220000000     0.147360000000    -0.248892   
O368     O      0.650440000000     0.115740000000     0.105550000000    -0.254241   
O369     O      0.281550000000     0.088030000000     0.405260000000    -0.243061   
O370     O      0.359460000000     0.123810000000     0.361840000000    -0.245798   
O371     O      0.326950000000     0.046470000000     0.398930000000    -0.242867   
O372     O      0.347280000000     0.094810000000     0.448790000000    -0.252593   
O373     O      0.353580000000     0.135580000000     0.429160000000    -0.24394    
O374     O      0.368260000000     0.063360000000     0.394920000000    -0.251804   
O375     O      0.293870000000     0.131830000000     0.404950000000    -0.252374   
O376     O      0.323070000000     0.101600000000     0.347590000000    -0.255481   
O377     O      0.401160000000     0.124630000000     0.223530000000    -0.251959   
O378     O      0.358290000000     0.083200000000     0.150670000000    -0.247619   
O379     O      0.440780000000     0.098940000000     0.171150000000    -0.242187   
O380     O      0.360270000000     0.155950000000     0.168720000000    -0.252688   
O381     O      0.385370000000     0.149430000000     0.131130000000    -0.249995   
O382     O      0.435160000000     0.143960000000     0.166430000000    -0.247594   
O383     O      0.364810000000     0.100800000000     0.212820000000    -0.250456   
O384     O      0.400830000000     0.070500000000     0.146830000000    -0.244643   


