data_structure

_audit_creation_method RASPA-1.0
_audit_creation_date 2023-5-22
_audit_author_name 'Poobodin Mano'

_cell_length_a    37.7525
_cell_length_b    38.8786
_cell_length_c    29.1299
_cell_angle_alpha 90.0029
_cell_angle_beta  90.0032
_cell_angle_gamma 120.001
_cell_volume      37027.3

_symmetry_cell_setting          triclinic
_symmetry_space_group_name_Hall 'P 1'
_symmetry_space_group_name_H-M  'P 1'
_symmetry_Int_Tables_number     1

_symmetry_equiv_pos_as_xyz 'x,y,z'

loop_
_atom_site_label
_atom_site_type_symbol
_atom_site_fract_x
_atom_site_fract_y
_atom_site_fract_z
_atom_site_charge
C1       C      0.528190000000     0.287560000000     0.572140000000     0.336306   
C2       C      0.417600000000     0.309060000000     0.488840000000     0.339366   
C3       C      0.468350000000     0.237740000000     0.438320000000     0.341321   
C4       C      0.390960000000     0.219860000000     0.591070000000     0.341088   
C5       C      0.362550000000     0.296030000000     0.226830000000     0.335837   
C6       C      0.352270000000     0.160800000000     0.170600000000     0.334887   
C7       C      0.418930000000     0.278460000000     0.103400000000     0.338963   
C8       C      0.428720000000     0.237720000000     0.272970000000     0.337365   
C9       C      0.315790000000     0.356060000000     0.538470000000     0.335942   
C10      C      0.180800000000     0.338720000000     0.614900000000     0.337992   
C11      C      0.302800000000     0.409640000000     0.664630000000     0.338597   
C12      C      0.248820000000     0.415110000000     0.497650000000     0.335977   
C13      C      0.313220000000     0.396330000000     0.272390000000     0.338854   
C14      C      0.294230000000     0.504490000000     0.186450000000     0.336886   
C15      C      0.223750000000     0.374240000000     0.170850000000     0.340603   
C16      C      0.243510000000     0.447920000000     0.327470000000     0.339939   
C17      C      0.156300000000     0.353080000000     0.862140000000     0.33609    
C18      C      0.267640000000     0.485920000000     0.937080000000     0.338381   
C19      C      0.216610000000     0.373480000000     0.998000000000     0.336875   
C20      C      0.289830000000     0.418570000000     0.835640000000     0.339341   
C21      C      0.370580000000     0.129660000000     0.882360000000     0.336773   
C22      C      0.506170000000     0.250520000000     0.816370000000     0.338063   
C23      C      0.388780000000     0.200280000000     0.760220000000     0.336325   
C24      C      0.429840000000     0.250790000000     0.931310000000     0.335915   
C25      C      0.299590000000     0.074260000000     0.888190000000    -0.0156179  
C26      C      0.359130000000     0.067770000000     0.919360000000    -0.014566   
C27      C      0.273640000000     0.049500000000     0.928730000000    -0.012013   
C28      C      0.331670000000     0.043840000000     0.959530000000    -0.0125718  
C29      C      0.575380000000     0.258920000000     0.808970000000    -0.0118825  
C30      C      0.563640000000     0.314070000000     0.788490000000    -0.0115749  
C31      C      0.104710000000     0.283420000000     0.847550000000    -0.0158654  
C32      C      0.091590000000     0.340320000000     0.827000000000    -0.0151877  
C33      C      0.224880000000     0.330360000000     0.110360000000    -0.011075   
C34      C      0.167300000000     0.342900000000     0.114830000000    -0.0127683  
C35      C      0.240450000000     0.353080000000     0.065240000000    -0.015104   
C36      C      0.179370000000     0.365900000000     0.069480000000    -0.0148725  
C37      C      0.336930000000     0.400180000000     0.732260000000    -0.0137474  
C38      C      0.325810000000     0.459370000000     0.726190000000    -0.013361   
C39      C      0.319910000000     0.391770000000     0.781470000000    -0.0133974  
C40      C      0.337930000000     0.463810000000     0.776970000000    -0.0129728  
C41      C      0.261700000000     0.485160000000     0.400990000000    -0.0120845  
C42      C      0.195690000000     0.423160000000     0.393020000000    -0.0123302  
C43      C      0.275970000000     0.467340000000     0.438810000000    -0.0154355  
C44      C      0.207870000000     0.401650000000     0.427940000000    -0.0147536  
C45      C      0.347980000000     0.063830000000     0.148040000000    -0.0124347  
C46      C      0.277420000000     0.052390000000     0.153700000000    -0.0133161  
C47      C      0.365550000000     0.105280000000     0.168870000000    -0.0155768  
C48      C      0.292600000000     0.093410000000     0.175180000000    -0.014951   
C49      C      0.375600000000     0.390450000000     0.273340000000    -0.0120679  
C50      C      0.309320000000     0.334090000000     0.298870000000    -0.0121574  
C51      C      0.378190000000     0.365400000000     0.234310000000    -0.0158626  
C52      C      0.309200000000     0.307760000000     0.259670000000    -0.014939   
C53      C      0.396120000000     0.271060000000     0.988330000000    -0.0154494  
C54      C      0.463970000000     0.272610000000     0.005620000000    -0.0145669  
C55      C      0.406160000000     0.300160000000     0.028200000000    -0.011822   
C56      C      0.471980000000     0.303140000000     0.043000000000    -0.0125927  
C57      C      0.368230000000     0.229490000000     0.698870000000    -0.0150815  
C58      C      0.376400000000     0.167560000000     0.685670000000    -0.0146841  
C59      C      0.346080000000     0.219830000000     0.652710000000    -0.0109796  
C60      C      0.353220000000     0.161100000000     0.640570000000    -0.0123305  
C61      C      0.581750000000     0.270880000000     0.587740000000    -0.015987   
C62      C      0.091940000000     0.339830000000     0.606650000000    -0.0151476  
C63      C      0.113430000000     0.277650000000     0.624770000000    -0.0119507  
C64      C      0.121690000000     0.343060000000     0.644260000000    -0.0116104  
C65      C      0.412740000000     0.370220000000     0.488330000000    -0.0118799  
C66      C      0.354600000000     0.306780000000     0.461240000000    -0.0122116  
C67      C      0.387170000000     0.372090000000     0.528030000000    -0.0159193  
C68      C      0.327460000000     0.305690000000     0.500960000000    -0.0149318  
C69      C      0.485650000000     0.266080000000     0.327890000000    -0.0154351  
C70      C      0.419040000000     0.199300000000     0.342730000000    -0.0145924  
C71      C      0.505990000000     0.253490000000     0.364680000000    -0.0115548  
C72      C      0.443580000000     0.188880000000     0.375660000000    -0.011762   
C73      C      0.527560000000     0.783200000000     0.570340000000     0.33618    
C74      C      0.417070000000     0.805190000000     0.487630000000     0.339301   
C75      C      0.467050000000     0.733750000000     0.436490000000     0.341124   
C76      C      0.390580000000     0.715950000000     0.590090000000     0.341052   
C77      C      0.362340000000     0.795280000000     0.225850000000     0.335979   
C78      C      0.351750000000     0.660260000000     0.168050000000     0.334823   
C79      C      0.418870000000     0.778330000000     0.102130000000     0.338946   
C80      C      0.427680000000     0.735920000000     0.271360000000     0.337255   
C81      C      0.315150000000     0.851810000000     0.537660000000     0.336081   
C82      C      0.179840000000     0.833720000000     0.614280000000     0.338009   
C83      C      0.301820000000     0.903630000000     0.664970000000     0.338517   
C84      C      0.248220000000     0.911360000000     0.498570000000     0.3359     
C85      C      0.313400000000     0.895510000000     0.273260000000     0.338867   
C86      C      0.294760000000     0.004580000000     0.189300000000     0.336046   
C87      C      0.224020000000     0.874220000000     0.171950000000     0.340561   
C88      C      0.243280000000     0.946360000000     0.329390000000     0.340155   
C89      C      0.156400000000     0.850070000000     0.862220000000     0.335934   
C90      C      0.268870000000     0.983860000000     0.933680000000     0.338767   
C91      C      0.217250000000     0.872440000000     0.998520000000     0.336912   
C92      C      0.289940000000     0.913630000000     0.835790000000     0.339594   
C93      C      0.369570000000     0.628970000000     0.884020000000     0.336894   
C94      C      0.506030000000     0.747970000000     0.816680000000     0.337992   
C95      C      0.388920000000     0.698050000000     0.759880000000     0.336451   
C96      C      0.430130000000     0.750590000000     0.930450000000     0.335952   
C97      C      0.298160000000     0.574650000000     0.891590000000    -0.0157663  
C98      C      0.357300000000     0.567710000000     0.923450000000    -0.0149069  
C99      C      0.272610000000     0.551550000000     0.933180000000    -0.0117053  
C100     C      0.329950000000     0.545370000000     0.964390000000    -0.0120292  
C101     C      0.574970000000     0.755590000000     0.810310000000    -0.011875   
C102     C      0.564010000000     0.810900000000     0.788160000000    -0.0115966  
C103     C      0.104250000000     0.780400000000     0.848760000000    -0.0158891  
C104     C      0.091970000000     0.837490000000     0.826460000000    -0.0151852  
C105     C      0.224980000000     0.830140000000     0.111600000000    -0.0110733  
C106     C      0.167930000000     0.843550000000     0.115410000000    -0.012801   
C107     C      0.240950000000     0.852730000000     0.066470000000    -0.0152052  
C108     C      0.180510000000     0.866460000000     0.070000000000    -0.0149232  
C109     C      0.335070000000     0.892790000000     0.732510000000    -0.0138854  
C110     C      0.326330000000     0.953430000000     0.726490000000    -0.0135284  
C111     C      0.318560000000     0.885150000000     0.781960000000    -0.0133108  
C112     C      0.338890000000     0.957760000000     0.777090000000    -0.0126743  
C113     C      0.261130000000     0.982730000000     0.403480000000    -0.0116864  
C114     C      0.195210000000     0.920790000000     0.394650000000    -0.0122645  
C115     C      0.275370000000     0.964460000000     0.440780000000    -0.0155547  
C116     C      0.207350000000     0.898830000000     0.428970000000    -0.0147896  
C117     C      0.347190000000     0.563330000000     0.144290000000    -0.0120695  
C118     C      0.276800000000     0.552000000000     0.150130000000    -0.0129826  
C119     C      0.364890000000     0.604670000000     0.165440000000    -0.0155578  
C120     C      0.291950000000     0.592900000000     0.171930000000    -0.014943   
C121     C      0.375700000000     0.889480000000     0.273450000000    -0.0119994  
C122     C      0.309430000000     0.833030000000     0.298850000000    -0.0121382  
C123     C      0.378120000000     0.864650000000     0.234030000000    -0.0159426  
C124     C      0.309130000000     0.806960000000     0.259240000000    -0.0148877  
C125     C      0.396550000000     0.771430000000     0.986950000000    -0.0152602  
C126     C      0.464420000000     0.773030000000     0.004560000000    -0.0146068  
C127     C      0.406360000000     0.800350000000     0.026970000000    -0.0120246  
C128     C      0.472190000000     0.803440000000     0.042010000000    -0.012578   
C129     C      0.368400000000     0.726600000000     0.697730000000    -0.0149716  
C130     C      0.377060000000     0.664890000000     0.685630000000    -0.0145299  
C131     C      0.345890000000     0.716190000000     0.651790000000    -0.0111154  
C132     C      0.353660000000     0.657700000000     0.640560000000    -0.0125775  
C133     C      0.581120000000     0.766430000000     0.585560000000    -0.0159498  
C134     C      0.091200000000     0.835140000000     0.605460000000    -0.0151253  
C135     C      0.112320000000     0.772630000000     0.622950000000    -0.0119498  
C136     C      0.120540000000     0.837870000000     0.643340000000    -0.0117311  
C137     C      0.412300000000     0.866400000000     0.487400000000    -0.0119017  
C138     C      0.354260000000     0.803140000000     0.459770000000    -0.0121435  
C139     C      0.386580000000     0.868070000000     0.527060000000    -0.0159175  
C140     C      0.326960000000     0.801800000000     0.499430000000    -0.0149496  
C141     C      0.484490000000     0.763170000000     0.326470000000    -0.0154475  
C142     C      0.417300000000     0.696840000000     0.340750000000    -0.0146125  
C143     C      0.504490000000     0.749710000000     0.362720000000    -0.0115245  
C144     C      0.441450000000     0.685520000000     0.373200000000    -0.0117989  
C145     C      0.028190000000     0.287560000000     0.572140000000     0.336324   
C146     C      0.917600000000     0.309060000000     0.488840000000     0.339374   
C147     C      0.968350000000     0.237740000000     0.438320000000     0.341283   
C148     C      0.890960000000     0.219860000000     0.591070000000     0.341089   
C149     C      0.862550000000     0.296030000000     0.226830000000     0.335771   
C150     C      0.852270000000     0.160800000000     0.170600000000     0.334748   
C151     C      0.918940000000     0.278460000000     0.103400000000     0.338944   
C152     C      0.928720000000     0.237720000000     0.272970000000     0.337401   
C153     C      0.815790000000     0.356060000000     0.538470000000     0.335941   
C154     C      0.680800000000     0.338720000000     0.614900000000     0.337991   
C155     C      0.802800000000     0.409640000000     0.664630000000     0.3386     
C156     C      0.748820000000     0.415110000000     0.497650000000     0.335977   
C157     C      0.813220000000     0.396330000000     0.272390000000     0.339009   
C158     C      0.794230000000     0.504490000000     0.186450000000     0.336883   
C159     C      0.723750000000     0.374240000000     0.170850000000     0.340604   
C160     C      0.743510000000     0.447920000000     0.327470000000     0.33994    
C161     C      0.656300000000     0.353080000000     0.862140000000     0.336095   
C162     C      0.767640000000     0.485920000000     0.937080000000     0.338379   
C163     C      0.716610000000     0.373480000000     0.998000000000     0.336876   
C164     C      0.789830000000     0.418570000000     0.835640000000     0.339342   
C165     C      0.870580000000     0.129660000000     0.882360000000     0.33693    
C166     C      0.006170000000     0.250520000000     0.816370000000     0.337256   
C167     C      0.888780000000     0.200280000000     0.760220000000     0.336332   
C168     C      0.929840000000     0.250790000000     0.931310000000     0.335922   
C169     C      0.799590000000     0.074260000000     0.888190000000    -0.0156169  
C170     C      0.859130000000     0.067770000000     0.919360000000    -0.0145821  
C171     C      0.773640000000     0.049500000000     0.928730000000    -0.0120099  
C172     C      0.831670000000     0.043840000000     0.959530000000    -0.0125765  
C173     C      0.075380000000     0.258920000000     0.808970000000    -0.0119284  
C174     C      0.063630000000     0.314070000000     0.788490000000    -0.0116451  
C175     C      0.604710000000     0.283420000000     0.847550000000    -0.0158793  
C176     C      0.591590000000     0.340320000000     0.827000000000    -0.0151827  
C177     C      0.724880000000     0.330360000000     0.110360000000    -0.0110771  
C178     C      0.667300000000     0.342900000000     0.114830000000    -0.012772   
C179     C      0.740450000000     0.353080000000     0.065240000000    -0.0151026  
C180     C      0.679370000000     0.365900000000     0.069480000000    -0.0148712  
C181     C      0.836930000000     0.400180000000     0.732260000000    -0.0137506  
C182     C      0.825810000000     0.459370000000     0.726190000000    -0.0133605  
C183     C      0.819910000000     0.391770000000     0.781470000000    -0.0133964  
C184     C      0.837930000000     0.463810000000     0.776970000000    -0.0129753  
C185     C      0.761700000000     0.485160000000     0.400990000000    -0.0120856  
C186     C      0.695690000000     0.423160000000     0.393020000000    -0.0123339  
C187     C      0.775970000000     0.467340000000     0.438810000000    -0.0154361  
C188     C      0.707870000000     0.401650000000     0.427940000000    -0.0147521  
C189     C      0.847980000000     0.063830000000     0.148040000000    -0.0123618  
C190     C      0.777420000000     0.052390000000     0.153700000000    -0.0133693  
C191     C      0.865550000000     0.105280000000     0.168870000000    -0.0156093  
C192     C      0.792600000000     0.093410000000     0.175180000000    -0.0149399  
C193     C      0.875600000000     0.390450000000     0.273340000000    -0.0120361  
C194     C      0.809320000000     0.334090000000     0.298870000000    -0.0121623  
C195     C      0.878190000000     0.365400000000     0.234310000000    -0.0158862  
C196     C      0.809200000000     0.307760000000     0.259670000000    -0.014902   
C197     C      0.896130000000     0.271060000000     0.988330000000    -0.0153234  
C198     C      0.963970000000     0.272610000000     0.005620000000    -0.0145595  
C199     C      0.906160000000     0.300160000000     0.028200000000    -0.0119063  
C200     C      0.971980000000     0.303140000000     0.043000000000    -0.0126093  
C201     C      0.868230000000     0.229490000000     0.698870000000    -0.0150851  
C202     C      0.876400000000     0.167560000000     0.685670000000    -0.0146891  
C203     C      0.846080000000     0.219830000000     0.652710000000    -0.0109751  
C204     C      0.853220000000     0.161100000000     0.640570000000    -0.0123251  
C205     C      0.081750000000     0.270880000000     0.587740000000    -0.0159849  
C206     C      0.591940000000     0.339830000000     0.606650000000    -0.0151499  
C207     C      0.613430000000     0.277650000000     0.624770000000    -0.011949   
C208     C      0.621690000000     0.343060000000     0.644260000000    -0.0116076  
C209     C      0.912740000000     0.370220000000     0.488330000000    -0.0118833  
C210     C      0.854600000000     0.306780000000     0.461240000000    -0.0122088  
C211     C      0.887170000000     0.372090000000     0.528030000000    -0.0159197  
C212     C      0.827460000000     0.305690000000     0.500960000000    -0.014933   
C213     C      0.985640000000     0.266080000000     0.327890000000    -0.01463    
C214     C      0.919040000000     0.199300000000     0.342730000000    -0.0145516  
C215     C      0.005990000000     0.253490000000     0.364680000000    -0.0122575  
C216     C      0.943590000000     0.188880000000     0.375660000000    -0.0117887  
C217     C      0.027560000000     0.783200000000     0.570340000000     0.336073   
C218     C      0.917070000000     0.805190000000     0.487630000000     0.339295   
C219     C      0.967050000000     0.733750000000     0.436490000000     0.341146   
C220     C      0.890580000000     0.715950000000     0.590090000000     0.341052   
C221     C      0.862340000000     0.795280000000     0.225850000000     0.335977   
C222     C      0.851750000000     0.660260000000     0.168050000000     0.334953   
C223     C      0.918870000000     0.778330000000     0.102130000000     0.338946   
C224     C      0.927680000000     0.735920000000     0.271360000000     0.33729    
C225     C      0.815150000000     0.851810000000     0.537660000000     0.335997   
C226     C      0.679840000000     0.833720000000     0.614280000000     0.338009   
C227     C      0.801820000000     0.903630000000     0.664970000000     0.338521   
C228     C      0.748220000000     0.911360000000     0.498570000000     0.335992   
C229     C      0.813400000000     0.895510000000     0.273260000000     0.338865   
C230     C      0.794750000000     0.004580000000     0.189300000000     0.336208   
C231     C      0.724020000000     0.874220000000     0.171950000000     0.340561   
C232     C      0.743280000000     0.946360000000     0.329390000000     0.340155   
C233     C      0.656400000000     0.850070000000     0.862220000000     0.336036   
C234     C      0.768880000000     0.983860000000     0.933680000000     0.338773   
C235     C      0.717250000000     0.872440000000     0.998520000000     0.336913   
C236     C      0.789950000000     0.913630000000     0.835790000000     0.339535   
C237     C      0.869570000000     0.628970000000     0.884020000000     0.336891   
C238     C      0.006030000000     0.747970000000     0.816680000000     0.337169   
C239     C      0.888920000000     0.698050000000     0.759880000000     0.336458   
C240     C      0.930130000000     0.750590000000     0.930450000000     0.335956   
C241     C      0.798160000000     0.574650000000     0.891590000000    -0.0157666  
C242     C      0.857300000000     0.567710000000     0.923450000000    -0.0149102  
C243     C      0.772610000000     0.551550000000     0.933180000000    -0.0117077  
C244     C      0.829950000000     0.545370000000     0.964390000000    -0.0120285  
C245     C      0.074970000000     0.755590000000     0.810310000000    -0.0119167  
C246     C      0.064010000000     0.810900000000     0.788160000000    -0.0116586  
C247     C      0.604250000000     0.780400000000     0.848760000000    -0.0158868  
C248     C      0.591970000000     0.837490000000     0.826460000000    -0.0152371  
C249     C      0.724980000000     0.830140000000     0.111600000000    -0.0110754  
C250     C      0.667930000000     0.843550000000     0.115410000000    -0.0128013  
C251     C      0.740950000000     0.852730000000     0.066470000000    -0.0152044  
C252     C      0.680510000000     0.866460000000     0.070000000000    -0.0149342  
C253     C      0.835070000000     0.892790000000     0.732510000000    -0.0138864  
C254     C      0.826340000000     0.953430000000     0.726490000000    -0.0134775  
C255     C      0.818560000000     0.885150000000     0.781960000000    -0.013308   
C256     C      0.838890000000     0.957760000000     0.777090000000    -0.0126889  
C257     C      0.761130000000     0.982730000000     0.403480000000    -0.0116894  
C258     C      0.695210000000     0.920790000000     0.394650000000    -0.012269   
C259     C      0.775370000000     0.964460000000     0.440780000000    -0.0155503  
C260     C      0.707350000000     0.898830000000     0.428970000000    -0.0147851  
C261     C      0.847190000000     0.563330000000     0.144290000000    -0.0120583  
C262     C      0.776800000000     0.552000000000     0.150130000000    -0.0129848  
C263     C      0.864890000000     0.604670000000     0.165440000000    -0.0155904  
C264     C      0.791950000000     0.592900000000     0.171930000000    -0.0149396  
C265     C      0.875700000000     0.889480000000     0.273450000000    -0.0120021  
C266     C      0.809430000000     0.833030000000     0.298850000000    -0.0121522  
C267     C      0.878120000000     0.864650000000     0.234030000000    -0.0159425  
C268     C      0.809130000000     0.806960000000     0.259240000000    -0.0148538  
C269     C      0.896550000000     0.771430000000     0.986950000000    -0.015257   
C270     C      0.964420000000     0.773030000000     0.004560000000    -0.014606   
C271     C      0.906360000000     0.800350000000     0.026970000000    -0.0120271  
C272     C      0.972190000000     0.803440000000     0.042010000000    -0.0125816  
C273     C      0.868400000000     0.726600000000     0.697730000000    -0.0149753  
C274     C      0.877060000000     0.664890000000     0.685630000000    -0.0145348  
C275     C      0.845890000000     0.716190000000     0.651790000000    -0.0111109  
C276     C      0.853660000000     0.657700000000     0.640560000000    -0.012572   
C277     C      0.081120000000     0.766430000000     0.585560000000    -0.0159516  
C278     C      0.591200000000     0.835140000000     0.605460000000    -0.0151191  
C279     C      0.612320000000     0.772630000000     0.622950000000    -0.0119493  
C280     C      0.620540000000     0.837870000000     0.643340000000    -0.0117309  
C281     C      0.912300000000     0.866400000000     0.487400000000    -0.0119122  
C282     C      0.854260000000     0.803140000000     0.459770000000    -0.0121381  
C283     C      0.886580000000     0.868070000000     0.527060000000    -0.0158954  
C284     C      0.826960000000     0.801800000000     0.499430000000    -0.0149674  
C285     C      0.984490000000     0.763170000000     0.326470000000    -0.0147021  
C286     C      0.917300000000     0.696840000000     0.340750000000    -0.0145668  
C287     C      0.004480000000     0.749710000000     0.362720000000    -0.0121417  
C288     C      0.941450000000     0.685520000000     0.373200000000    -0.0118241  
Cd1      Cd     0.452910000000     0.264090000000     0.523770000000     0.511756   
Cd2      Cd     0.389570000000     0.243810000000     0.191900000000     0.512736   
Cd3      Cd     0.262130000000     0.380270000000     0.578350000000     0.511965   
Cd4      Cd     0.268600000000     0.433180000000     0.239790000000     0.510293   
Cd5      Cd     0.231880000000     0.405760000000     0.907100000000     0.513132   
Cd6      Cd     0.423810000000     0.208140000000     0.848800000000     0.514379   
Cd7      Cd     0.452170000000     0.759980000000     0.522340000000     0.511762   
Cd8      Cd     0.389160000000     0.743080000000     0.190330000000     0.512704   
Cd9      Cd     0.261380000000     0.875490000000     0.578380000000     0.512117   
Cd10     Cd     0.268780000000     0.932610000000     0.241460000000     0.510265   
Cd11     Cd     0.232240000000     0.902870000000     0.906710000000     0.513071   
Cd12     Cd     0.423560000000     0.706680000000     0.848840000000     0.514366   
Cd13     Cd     0.952910000000     0.264090000000     0.523770000000     0.511915   
Cd14     Cd     0.889570000000     0.243810000000     0.191900000000     0.512731   
Cd15     Cd     0.762130000000     0.380270000000     0.578350000000     0.51197    
Cd16     Cd     0.768600000000     0.433180000000     0.239790000000     0.5103     
Cd17     Cd     0.731880000000     0.405760000000     0.907100000000     0.51314    
Cd18     Cd     0.923810000000     0.208140000000     0.848800000000     0.514403   
Cd19     Cd     0.952170000000     0.759980000000     0.522340000000     0.511946   
Cd20     Cd     0.889160000000     0.743080000000     0.190330000000     0.512733   
Cd21     Cd     0.761380000000     0.875490000000     0.578380000000     0.512123   
Cd22     Cd     0.768780000000     0.932610000000     0.241460000000     0.510286   
Cd23     Cd     0.732240000000     0.902870000000     0.906710000000     0.513096   
Cd24     Cd     0.923570000000     0.706680000000     0.848840000000     0.51436    
H1       H      0.358800000000     0.046710000000     0.893300000000     0.0544024  
H2       H      0.292050000000     0.054340000000     0.857940000000     0.0549273  
H3       H      0.240850000000     0.032750000000     0.918650000000     0.0536621  
H4       H      0.391050000000     0.086070000000     0.932040000000     0.0532327  
H5       H      0.339050000000     0.524510000000     0.979040000000     0.0524485  
H6       H      0.335630000000     0.064850000000     0.987630000000     0.0448299  
H7       H      0.290670000000     0.096760000000     0.879640000000     0.055526   
H8       H      0.276980000000     0.070080000000     0.957090000000     0.0464144  
H9       H      0.582510000000     0.319620000000     0.757130000000     0.0421324  
H10      H      0.093500000000     0.264090000000     0.777000000000     0.0447463  
H11      H      0.130390000000     0.277140000000     0.848130000000     0.0553304  
H12      H      0.540070000000     0.322430000000     0.780820000000     0.052757   
H13      H      0.108750000000     0.371550000000     0.814580000000     0.0532274  
H14      H      0.072300000000     0.339340000000     0.856380000000     0.0556439  
H15      H      0.560450000000     0.226780000000     0.817480000000     0.0533987  
H16      H      0.088300000000     0.273050000000     0.880830000000     0.0552273  
H17      H      0.145980000000     0.310990000000     0.107210000000     0.0459752  
H18      H      0.202710000000     0.298760000000     0.102200000000     0.0454223  
H19      H      0.249460000000     0.336040000000     0.041990000000     0.0535078  
H20      H      0.151020000000     0.353810000000     0.137030000000     0.0543086  
H21      H      0.151190000000     0.356460000000     0.048810000000     0.0523668  
H22      H      0.192250000000     0.398000000000     0.077220000000     0.056096   
H23      H      0.250700000000     0.331220000000     0.129740000000     0.0516201  
H24      H      0.268570000000     0.381920000000     0.072380000000     0.0581254  
H25      H      0.349200000000     0.485350000000     0.706540000000     0.0487289  
H26      H      0.370810000000     0.418650000000     0.734250000000     0.0449289  
H27      H      0.340350000000     0.386410000000     0.804120000000     0.0483206  
H28      H      0.296460000000     0.459420000000     0.722910000000     0.0589794  
H29      H      0.371320000000     0.474800000000     0.779060000000     0.0445856  
H30      H      0.332470000000     0.486620000000     0.793220000000     0.0527584  
H31      H      0.329770000000     0.371760000000     0.715440000000     0.0542246  
H32      H      0.289570000000     0.364040000000     0.781400000000     0.0577246  
H33      H      0.180740000000     0.437490000000     0.411640000000     0.046932   
H34      H      0.245960000000     0.499590000000     0.417680000000     0.0460727  
H35      H      0.290660000000     0.489620000000     0.466710000000     0.0541568  
H36      H      0.173190000000     0.401370000000     0.368340000000     0.0540363  
H37      H      0.180580000000     0.382050000000     0.449150000000     0.0530917  
H38      H      0.216660000000     0.382130000000     0.409140000000     0.05708    
H39      H      0.288650000000     0.508550000000     0.382200000000     0.052764   
H40      H      0.299970000000     0.461910000000     0.424250000000     0.0547783  
H41      H      0.276150000000     0.055310000000     0.115830000000     0.0458256  
H42      H      0.347510000000     0.066620000000     0.110060000000     0.0443127  
H43      H      0.394670000000     0.125480000000     0.150850000000     0.0534866  
H44      H      0.245260000000     0.531280000000     0.162400000000     0.0540982  
H45      H      0.274040000000     0.106060000000     0.161450000000     0.0529172  
H46      H      0.287220000000     0.089670000000     0.212850000000     0.0549785  
H47      H      0.368340000000     0.051670000000     0.156360000000     0.0530872  
H48      H      0.373280000000     0.103920000000     0.205420000000     0.0538652  
H49      H      0.324620000000     0.329630000000     0.329070000000     0.0441743  
H50      H      0.391140000000     0.386970000000     0.303950000000     0.0458666  
H51      H      0.410720000000     0.373520000000     0.229990000000     0.055495   
H52      H      0.277330000000     0.324730000000     0.308830000000     0.0530881  
H53      H      0.294960000000     0.276600000000     0.272120000000     0.0531864  
H54      H      0.289960000000     0.308560000000     0.231250000000     0.0548631  
H55      H      0.392050000000     0.422330000000     0.263420000000     0.0534476  
H56      H      0.368550000000     0.373580000000     0.201980000000     0.0546619  
H57      H      0.454180000000     0.243420000000     0.022180000000     0.0555237  
H58      H      0.371760000000     0.241180000000     0.999700000000     0.0546471  
H59      H      0.377360000000     0.295700000000     0.044040000000     0.053155   
H60      H      0.493270000000     0.281550000000     0.987480000000     0.0525091  
H61      H      0.492160000000     0.301700000000     0.069820000000     0.0537053  
H62      H      0.488160000000     0.333260000000     0.027320000000     0.0468754  
H63      H      0.383230000000     0.280160000000     0.959550000000     0.0545989  
H64      H      0.422760000000     0.330850000000     0.014060000000     0.0463548  
H65      H      0.408990000000     0.177800000000     0.677570000000     0.0572051  
H66      H      0.398550000000     0.256850000000     0.694860000000     0.0579354  
H67      H      0.349890000000     0.247450000000     0.636670000000     0.0518602  
H68      H      0.364080000000     0.138490000000     0.703520000000     0.0524737  
H69      H      0.362370000000     0.145240000000     0.615710000000     0.054301   
H70      H      0.319900000000     0.142150000000     0.647460000000     0.0457929  
H71      H      0.350720000000     0.236540000000     0.724200000000     0.0534378  
H72      H      0.312850000000     0.199680000000     0.658980000000     0.045128   
H73      H      0.109850000000     0.357630000000     0.576560000000     0.0561431  
H74      H      0.096630000000     0.275540000000     0.553580000000     0.0555449  
H75      H      0.129720000000     0.261430000000     0.615550000000     0.0533205  
H76      H      0.573670000000     0.353110000000     0.619480000000     0.0525944  
H77      H      0.144090000000     0.374850000000     0.651030000000     0.0532579  
H78      H      0.103920000000     0.330080000000     0.676270000000     0.0421117  
H79      H      0.556970000000     0.239280000000     0.589280000000     0.0547673  
H80      H      0.096950000000     0.265200000000     0.657650000000     0.0443968  
H81      H      0.350280000000     0.322630000000     0.431880000000     0.044068   
H82      H      0.409130000000     0.385950000000     0.458370000000     0.0456583  
H83      H      0.395430000000     0.403580000000     0.533060000000     0.0551657  
H84      H      0.344850000000     0.276000000000     0.449920000000     0.0530363  
H85      H      0.295470000000     0.292640000000     0.488390000000     0.0528532  
H86      H      0.327790000000     0.285860000000     0.528260000000     0.0555134  
H87      H      0.445630000000     0.385870000000     0.498060000000     0.0532865  
H88      H      0.395920000000     0.362420000000     0.559900000000     0.0553349  
H89      H      0.399180000000     0.207220000000     0.363040000000     0.058761   
H90      H      0.480840000000     0.289890000000     0.342410000000     0.0555141  
H91      H      0.530440000000     0.280180000000     0.382380000000     0.052597   
H92      H      0.398520000000     0.172360000000     0.322320000000     0.0526956  
H93      H      0.422860000000     0.166950000000     0.401460000000     0.054004   
H94      H      0.458370000000     0.175020000000     0.355760000000     0.0461044  
H95      H      0.507030000000     0.279380000000     0.298440000000     0.0547467  
H96      H      0.520650000000     0.238310000000     0.347310000000     0.0457179  
H97      H      0.356270000000     0.545650000000     0.898390000000     0.0552108  
H98      H      0.289740000000     0.553720000000     0.862210000000     0.055766   
H99      H      0.239570000000     0.535140000000     0.924150000000     0.0534564  
H100     H      0.389380000000     0.585920000000     0.935650000000     0.0534432  
H101     H      0.341410000000     0.023030000000     0.972780000000     0.0528981  
H102     H      0.334430000000     0.566990000000     0.991970000000     0.044184   
H103     H      0.289770000000     0.597340000000     0.882060000000     0.0557649  
H104     H      0.276530000000     0.572820000000     0.960940000000     0.0461212  
H105     H      0.582960000000     0.815870000000     0.756980000000     0.0421834  
H106     H      0.093180000000     0.760180000000     0.778540000000     0.0449104  
H107     H      0.129680000000     0.773780000000     0.850030000000     0.0553684  
H108     H      0.540700000000     0.819450000000     0.779850000000     0.0526827  
H109     H      0.109430000000     0.868530000000     0.813540000000     0.0533147  
H110     H      0.072670000000     0.837080000000     0.855530000000     0.0556277  
H111     H      0.559720000000     0.723550000000     0.819390000000     0.0534286  
H112     H      0.087640000000     0.770610000000     0.882000000000     0.0552252  
H113     H      0.146310000000     0.811700000000     0.107810000000     0.0461316  
H114     H      0.202590000000     0.798600000000     0.103450000000     0.0455657  
H115     H      0.250010000000     0.835550000000     0.043550000000     0.0536941  
H116     H      0.151840000000     0.854840000000     0.137340000000     0.0543164  
H117     H      0.152480000000     0.857480000000     0.049230000000     0.0525054  
H118     H      0.193990000000     0.898650000000     0.077620000000     0.055826   
H119     H      0.250560000000     0.830730000000     0.131220000000     0.051601   
H120     H      0.269070000000     0.881540000000     0.073710000000     0.0579355  
H121     H      0.350030000000     0.978980000000     0.706550000000     0.0489237  
H122     H      0.369030000000     0.910310000000     0.734040000000     0.0449983  
H123     H      0.338760000000     0.879280000000     0.804410000000     0.0482652  
H124     H      0.297460000000     0.954420000000     0.723570000000     0.059291   
H125     H      0.372070000000     0.967670000000     0.778780000000     0.044426   
H126     H      0.334640000000     0.981310000000     0.793390000000     0.0526131  
H127     H      0.326710000000     0.864000000000     0.715850000000     0.054291   
H128     H      0.287830000000     0.857910000000     0.782360000000     0.0575813  
H129     H      0.180190000000     0.934840000000     0.413710000000     0.046907   
H130     H      0.245290000000     0.996870000000     0.420600000000     0.0459854  
H131     H      0.289900000000     0.986340000000     0.469090000000     0.0541592  
H132     H      0.172780000000     0.899330000000     0.369660000000     0.0540803  
H133     H      0.180040000000     0.878930000000     0.449980000000     0.0530691  
H134     H      0.216190000000     0.879580000000     0.409660000000     0.057218   
H135     H      0.288090000000     0.006400000000     0.384990000000     0.052447   
H136     H      0.299490000000     0.959340000000     0.425950000000     0.0549277  
H137     H      0.275050000000     0.554470000000     0.112250000000     0.0455884  
H138     H      0.346760000000     0.565760000000     0.106260000000     0.0437669  
H139     H      0.393980000000     0.624910000000     0.147380000000     0.0534706  
H140     H      0.245860000000     0.031690000000     0.165920000000     0.0541387  
H141     H      0.273480000000     0.605680000000     0.158250000000     0.0529294  
H142     H      0.286430000000     0.588960000000     0.209560000000     0.0551052  
H143     H      0.367480000000     0.551080000000     0.152530000000     0.0529845  
H144     H      0.372710000000     0.603120000000     0.201910000000     0.0540266  
H145     H      0.324780000000     0.828300000000     0.328810000000     0.0441621  
H146     H      0.391310000000     0.885760000000     0.303850000000     0.0458635  
H147     H      0.410610000000     0.872730000000     0.229480000000     0.0555183  
H148     H      0.277480000000     0.823660000000     0.309020000000     0.0531057  
H149     H      0.294810000000     0.775690000000     0.271340000000     0.0531648  
H150     H      0.289880000000     0.808060000000     0.231030000000     0.0548263  
H151     H      0.392180000000     0.921430000000     0.263830000000     0.0534693  
H152     H      0.368410000000     0.873080000000     0.201930000000     0.0546559  
H153     H      0.454800000000     0.743850000000     0.021070000000     0.0557536  
H154     H      0.371990000000     0.741530000000     0.998020000000     0.0546845  
H155     H      0.377480000000     0.795760000000     0.042700000000     0.0532556  
H156     H      0.493760000000     0.782160000000     0.986440000000     0.052425   
H157     H      0.492330000000     0.802020000000     0.068890000000     0.0537113  
H158     H      0.488320000000     0.833600000000     0.026420000000     0.046779   
H159     H      0.383960000000     0.780750000000     0.958050000000     0.0544475  
H160     H      0.422970000000     0.831090000000     0.013020000000     0.0463221  
H161     H      0.409700000000     0.675420000000     0.677480000000     0.0568638  
H162     H      0.398680000000     0.753900000000     0.693160000000     0.0578547  
H163     H      0.349290000000     0.743480000000     0.635300000000     0.0519399  
H164     H      0.365130000000     0.636020000000     0.703860000000     0.0524788  
H165     H      0.362980000000     0.641790000000     0.615980000000     0.0545062  
H166     H      0.320410000000     0.638540000000     0.647640000000     0.0460721  
H167     H      0.351060000000     0.734030000000     0.722890000000     0.0534174  
H168     H      0.312750000000     0.695860000000     0.658440000000     0.0453137  
H169     H      0.109450000000     0.853220000000     0.575690000000     0.0560126  
H170     H      0.096440000000     0.771640000000     0.551610000000     0.0555477  
H171     H      0.128640000000     0.756450000000     0.613670000000     0.0533655  
H172     H      0.572890000000     0.848370000000     0.618290000000     0.0526231  
H173     H      0.142920000000     0.869560000000     0.650640000000     0.0532326  
H174     H      0.102430000000     0.824550000000     0.675060000000     0.042195   
H175     H      0.556350000000     0.734800000000     0.586370000000     0.0548411  
H176     H      0.095440000000     0.759790000000     0.655530000000     0.0445748  
H177     H      0.350080000000     0.819200000000     0.430530000000     0.0440011  
H178     H      0.408830000000     0.882290000000     0.457520000000     0.0456074  
H179     H      0.394770000000     0.899530000000     0.532220000000     0.0551393  
H180     H      0.344550000000     0.772440000000     0.448180000000     0.0530211  
H181     H      0.295030000000     0.788880000000     0.486680000000     0.0528604  
H182     H      0.327110000000     0.781750000000     0.526550000000     0.0556518  
H183     H      0.445150000000     0.881980000000     0.497280000000     0.0532793  
H184     H      0.395270000000     0.858320000000     0.558910000000     0.0553396  
H185     H      0.397890000000     0.705080000000     0.361440000000     0.0586469  
H186     H      0.480060000000     0.787010000000     0.341630000000     0.055516   
H187     H      0.529270000000     0.776010000000     0.380640000000     0.0526379  
H188     H      0.396360000000     0.670200000000     0.320130000000     0.0528222  
H189     H      0.420520000000     0.663520000000     0.398820000000     0.0540019  
H190     H      0.455770000000     0.671440000000     0.352870000000     0.0462212  
H191     H      0.505920000000     0.776660000000     0.297100000000     0.0547786  
H192     H      0.518670000000     0.734300000000     0.344820000000     0.0457773  
H193     H      0.858790000000     0.046710000000     0.893300000000     0.0544248  
H194     H      0.792050000000     0.054340000000     0.857940000000     0.0549312  
H195     H      0.740850000000     0.032750000000     0.918650000000     0.0536801  
H196     H      0.891050000000     0.086070000000     0.932040000000     0.0532641  
H197     H      0.839050000000     0.524510000000     0.979040000000     0.0524616  
H198     H      0.835630000000     0.064850000000     0.987630000000     0.0448412  
H199     H      0.790670000000     0.096760000000     0.879640000000     0.0555342  
H200     H      0.776980000000     0.070080000000     0.957090000000     0.0464253  
H201     H      0.082510000000     0.319620000000     0.757130000000     0.0421277  
H202     H      0.593500000000     0.264090000000     0.777000000000     0.0447599  
H203     H      0.630390000000     0.277140000000     0.848130000000     0.0553533  
H204     H      0.040070000000     0.322430000000     0.780820000000     0.0526878  
H205     H      0.608750000000     0.371550000000     0.814580000000     0.0532526  
H206     H      0.572290000000     0.339340000000     0.856380000000     0.0557008  
H207     H      0.060450000000     0.226780000000     0.817480000000     0.0533275  
H208     H      0.588300000000     0.273050000000     0.880830000000     0.055287   
H209     H      0.645980000000     0.310990000000     0.107210000000     0.0460199  
H210     H      0.702710000000     0.298760000000     0.102200000000     0.0454451  
H211     H      0.749460000000     0.336040000000     0.041990000000     0.0535187  
H212     H      0.651020000000     0.353810000000     0.137030000000     0.054349   
H213     H      0.651190000000     0.356460000000     0.048810000000     0.0524082  
H214     H      0.692250000000     0.398000000000     0.077220000000     0.0561117  
H215     H      0.750700000000     0.331220000000     0.129740000000     0.0516291  
H216     H      0.768570000000     0.381920000000     0.072380000000     0.0581309  
H217     H      0.849200000000     0.485350000000     0.706540000000     0.0487498  
H218     H      0.870810000000     0.418650000000     0.734250000000     0.0449572  
H219     H      0.840350000000     0.386410000000     0.804120000000     0.0483388  
H220     H      0.796460000000     0.459420000000     0.722910000000     0.0589849  
H221     H      0.871320000000     0.474800000000     0.779060000000     0.044613   
H222     H      0.832470000000     0.486620000000     0.793220000000     0.05277    
H223     H      0.829770000000     0.371760000000     0.715440000000     0.0542375  
H224     H      0.789570000000     0.364040000000     0.781400000000     0.05773    
H225     H      0.680740000000     0.437490000000     0.411640000000     0.0469612  
H226     H      0.745960000000     0.499590000000     0.417680000000     0.0460883  
H227     H      0.790660000000     0.489620000000     0.466710000000     0.0541694  
H228     H      0.673190000000     0.401370000000     0.368340000000     0.0540647  
H229     H      0.680580000000     0.382050000000     0.449150000000     0.0531112  
H230     H      0.716660000000     0.382130000000     0.409140000000     0.0570892  
H231     H      0.788650000000     0.508550000000     0.382200000000     0.0527752  
H232     H      0.799970000000     0.461910000000     0.424250000000     0.0547882  
H233     H      0.776150000000     0.055310000000     0.115830000000     0.0458481  
H234     H      0.847510000000     0.066620000000     0.110060000000     0.0443081  
H235     H      0.894670000000     0.125480000000     0.150850000000     0.0535219  
H236     H      0.745260000000     0.531280000000     0.162400000000     0.0541172  
H237     H      0.774040000000     0.106060000000     0.161450000000     0.0529306  
H238     H      0.787220000000     0.089670000000     0.212850000000     0.0549862  
H239     H      0.868340000000     0.051670000000     0.156360000000     0.0530943  
H240     H      0.873280000000     0.103920000000     0.205420000000     0.0538921  
H241     H      0.824620000000     0.329630000000     0.329070000000     0.0441835  
H242     H      0.891150000000     0.386970000000     0.303950000000     0.0458738  
H243     H      0.910720000000     0.373520000000     0.229990000000     0.0555286  
H244     H      0.777330000000     0.324730000000     0.308830000000     0.0531035  
H245     H      0.794950000000     0.276600000000     0.272120000000     0.0531806  
H246     H      0.789960000000     0.308560000000     0.231250000000     0.0548626  
H247     H      0.892050000000     0.422330000000     0.263420000000     0.0534649  
H248     H      0.868540000000     0.373580000000     0.201980000000     0.0546807  
H249     H      0.954180000000     0.243420000000     0.022180000000     0.0555478  
H250     H      0.871760000000     0.241180000000     0.999700000000     0.054615   
H251     H      0.877370000000     0.295700000000     0.044040000000     0.0531935  
H252     H      0.993270000000     0.281550000000     0.987480000000     0.0525772  
H253     H      0.992160000000     0.301700000000     0.069820000000     0.0537689  
H254     H      0.988160000000     0.333260000000     0.027320000000     0.0469398  
H255     H      0.883230000000     0.280160000000     0.959550000000     0.0545753  
H256     H      0.922760000000     0.330850000000     0.014060000000     0.0464027  
H257     H      0.908990000000     0.177800000000     0.677570000000     0.0572542  
H258     H      0.898550000000     0.256850000000     0.694860000000     0.0579734  
H259     H      0.849890000000     0.247450000000     0.636670000000     0.0518705  
H260     H      0.864080000000     0.138490000000     0.703520000000     0.0524906  
H261     H      0.862370000000     0.145240000000     0.615710000000     0.0543205  
H262     H      0.819900000000     0.142150000000     0.647460000000     0.0458022  
H263     H      0.850720000000     0.236540000000     0.724200000000     0.053451   
H264     H      0.812850000000     0.199680000000     0.658980000000     0.0451367  
H265     H      0.609850000000     0.357630000000     0.576560000000     0.0561674  
H266     H      0.596630000000     0.275540000000     0.553580000000     0.0555746  
H267     H      0.629720000000     0.261430000000     0.615550000000     0.0533426  
H268     H      0.073670000000     0.353110000000     0.619480000000     0.0525477  
H269     H      0.644090000000     0.374850000000     0.651030000000     0.0532708  
H270     H      0.603920000000     0.330080000000     0.676270000000     0.0421318  
H271     H      0.056970000000     0.239280000000     0.589280000000     0.0547116  
H272     H      0.596950000000     0.265200000000     0.657650000000     0.0444271  
H273     H      0.850280000000     0.322630000000     0.431880000000     0.0440756  
H274     H      0.909130000000     0.385950000000     0.458370000000     0.0456846  
H275     H      0.895430000000     0.403580000000     0.533060000000     0.0551921  
H276     H      0.844850000000     0.276000000000     0.449920000000     0.0530495  
H277     H      0.795470000000     0.292640000000     0.488390000000     0.0528622  
H278     H      0.827790000000     0.285860000000     0.528260000000     0.0555221  
H279     H      0.945630000000     0.385870000000     0.498060000000     0.0533364  
H280     H      0.895920000000     0.362420000000     0.559900000000     0.0553586  
H281     H      0.899180000000     0.207220000000     0.363040000000     0.0587506  
H282     H      0.980840000000     0.289890000000     0.342410000000     0.0554168  
H283     H      0.030440000000     0.280180000000     0.382380000000     0.0526393  
H284     H      0.898520000000     0.172360000000     0.322320000000     0.0527017  
H285     H      0.922860000000     0.166950000000     0.401460000000     0.0540304  
H286     H      0.958380000000     0.175020000000     0.355760000000     0.0461865  
H287     H      0.007030000000     0.279380000000     0.298440000000     0.0543261  
H288     H      0.020650000000     0.238310000000     0.347310000000     0.0457546  
H289     H      0.856270000000     0.545650000000     0.898390000000     0.0552255  
H290     H      0.789740000000     0.553720000000     0.862210000000     0.0557736  
H291     H      0.739570000000     0.535140000000     0.924150000000     0.0534755  
H292     H      0.889380000000     0.585920000000     0.935650000000     0.0534688  
H293     H      0.841410000000     0.023030000000     0.972780000000     0.0529113  
H294     H      0.834430000000     0.566990000000     0.991970000000     0.0441928  
H295     H      0.789770000000     0.597340000000     0.882060000000     0.0557754  
H296     H      0.776530000000     0.572820000000     0.960940000000     0.046133   
H297     H      0.082960000000     0.815870000000     0.756980000000     0.0421745  
H298     H      0.593180000000     0.760180000000     0.778540000000     0.0449272  
H299     H      0.629680000000     0.773780000000     0.850030000000     0.0553898  
H300     H      0.040700000000     0.819450000000     0.779850000000     0.0526064  
H301     H      0.609430000000     0.868530000000     0.813540000000     0.0533503  
H302     H      0.572670000000     0.837080000000     0.855530000000     0.0557022  
H303     H      0.059720000000     0.723550000000     0.819390000000     0.0533615  
H304     H      0.587650000000     0.770610000000     0.882000000000     0.0552787  
H305     H      0.646310000000     0.811700000000     0.107810000000     0.0461761  
H306     H      0.702590000000     0.798600000000     0.103450000000     0.045589   
H307     H      0.750010000000     0.835550000000     0.043550000000     0.053705   
H308     H      0.651840000000     0.854840000000     0.137340000000     0.0543568  
H309     H      0.652480000000     0.857480000000     0.049230000000     0.0525511  
H310     H      0.694000000000     0.898650000000     0.077620000000     0.0558505  
H311     H      0.750560000000     0.830730000000     0.131220000000     0.0516099  
H312     H      0.769070000000     0.881540000000     0.073710000000     0.0579404  
H313     H      0.850030000000     0.978980000000     0.706550000000     0.0489298  
H314     H      0.869030000000     0.910310000000     0.734040000000     0.0450238  
H315     H      0.838760000000     0.879280000000     0.804410000000     0.0482792  
H316     H      0.797460000000     0.954420000000     0.723570000000     0.05928    
H317     H      0.872070000000     0.967670000000     0.778780000000     0.0444535  
H318     H      0.834640000000     0.981310000000     0.793390000000     0.0526238  
H319     H      0.826710000000     0.864000000000     0.715850000000     0.0543028  
H320     H      0.787830000000     0.857910000000     0.782360000000     0.0575879  
H321     H      0.680190000000     0.934840000000     0.413710000000     0.0469371  
H322     H      0.745290000000     0.996870000000     0.420600000000     0.0460017  
H323     H      0.789900000000     0.986340000000     0.469090000000     0.0541726  
H324     H      0.672780000000     0.899330000000     0.369660000000     0.0541094  
H325     H      0.680040000000     0.878930000000     0.449980000000     0.0530884  
H326     H      0.716190000000     0.879580000000     0.409660000000     0.0572252  
H327     H      0.788090000000     0.006400000000     0.384990000000     0.0524585  
H328     H      0.799490000000     0.959340000000     0.425950000000     0.0549337  
H329     H      0.775050000000     0.554470000000     0.112250000000     0.0455995  
H330     H      0.846760000000     0.565760000000     0.106260000000     0.0437754  
H331     H      0.893970000000     0.624910000000     0.147380000000     0.0535101  
H332     H      0.745860000000     0.031690000000     0.165920000000     0.0541638  
H333     H      0.773480000000     0.605680000000     0.158250000000     0.0529422  
H334     H      0.786430000000     0.588960000000     0.209560000000     0.0551147  
H335     H      0.867480000000     0.551080000000     0.152530000000     0.0530031  
H336     H      0.872710000000     0.603120000000     0.201910000000     0.0540514  
H337     H      0.824780000000     0.828300000000     0.328810000000     0.0441718  
H338     H      0.891310000000     0.885760000000     0.303850000000     0.0458861  
H339     H      0.910610000000     0.872730000000     0.229480000000     0.0555477  
H340     H      0.777480000000     0.823660000000     0.309020000000     0.0531176  
H341     H      0.794810000000     0.775690000000     0.271340000000     0.0531673  
H342     H      0.789870000000     0.808060000000     0.231030000000     0.0548193  
H343     H      0.892180000000     0.921430000000     0.263830000000     0.0534949  
H344     H      0.868410000000     0.873080000000     0.201930000000     0.0546687  
H345     H      0.954800000000     0.743850000000     0.021070000000     0.0557809  
H346     H      0.871990000000     0.741530000000     0.998020000000     0.0546896  
H347     H      0.877480000000     0.795760000000     0.042700000000     0.0532664  
H348     H      0.993760000000     0.782160000000     0.986440000000     0.0524938  
H349     H      0.992330000000     0.802020000000     0.068890000000     0.0537727  
H350     H      0.988320000000     0.833600000000     0.026420000000     0.0468389  
H351     H      0.883960000000     0.780750000000     0.958050000000     0.0544612  
H352     H      0.922970000000     0.831090000000     0.013020000000     0.0463505  
H353     H      0.909700000000     0.675420000000     0.677480000000     0.0569128  
H354     H      0.898680000000     0.753900000000     0.693160000000     0.0578923  
H355     H      0.849290000000     0.743480000000     0.635300000000     0.0519495  
H356     H      0.865130000000     0.636020000000     0.703860000000     0.0524958  
H357     H      0.862980000000     0.641790000000     0.615980000000     0.0545254  
H358     H      0.820410000000     0.638540000000     0.647640000000     0.0460812  
H359     H      0.851060000000     0.734030000000     0.722890000000     0.0534306  
H360     H      0.812750000000     0.695860000000     0.658440000000     0.0453224  
H361     H      0.609450000000     0.853220000000     0.575690000000     0.0560386  
H362     H      0.596440000000     0.771640000000     0.551610000000     0.0555778  
H363     H      0.628640000000     0.756450000000     0.613670000000     0.0533888  
H364     H      0.072890000000     0.848370000000     0.618290000000     0.0525735  
H365     H      0.642920000000     0.869560000000     0.650640000000     0.053247   
H366     H      0.602430000000     0.824550000000     0.675060000000     0.0422169  
H367     H      0.056350000000     0.734800000000     0.586370000000     0.0547855  
H368     H      0.595440000000     0.759790000000     0.655530000000     0.044607   
H369     H      0.850080000000     0.819200000000     0.430530000000     0.0440068  
H370     H      0.908830000000     0.882290000000     0.457520000000     0.0456337  
H371     H      0.894770000000     0.899530000000     0.532220000000     0.0551567  
H372     H      0.844550000000     0.772440000000     0.448180000000     0.0530271  
H373     H      0.795030000000     0.788880000000     0.486680000000     0.0528693  
H374     H      0.827110000000     0.781750000000     0.526550000000     0.0556617  
H375     H      0.945150000000     0.881980000000     0.497280000000     0.0533295  
H376     H      0.895270000000     0.858320000000     0.558910000000     0.0553575  
H377     H      0.897890000000     0.705080000000     0.361440000000     0.0586395  
H378     H      0.980060000000     0.787010000000     0.341630000000     0.0554347  
H379     H      0.029270000000     0.776010000000     0.380640000000     0.0526481  
H380     H      0.896360000000     0.670200000000     0.320130000000     0.0528254  
H381     H      0.920520000000     0.663520000000     0.398820000000     0.0540285  
H382     H      0.955770000000     0.671440000000     0.352870000000     0.0462999  
H383     H      0.005920000000     0.776660000000     0.297100000000     0.054374   
H384     H      0.018670000000     0.734300000000     0.344820000000     0.0457822  
N1       N      0.287150000000     0.525080000000     0.949160000000    -0.151848   
N2       N      0.343910000000     0.092310000000     0.897900000000    -0.150463   
N3       N      0.119570000000     0.326540000000     0.842970000000    -0.149908   
N4       N      0.545850000000     0.272370000000     0.802190000000    -0.151803   
N5       N      0.210190000000     0.361150000000     0.042720000000    -0.1496     
N6       N      0.204290000000     0.347490000000     0.136430000000    -0.15167    
N7       N      0.315820000000     0.424860000000     0.799960000000    -0.150157   
N8       N      0.321260000000     0.422500000000     0.706380000000    -0.149296   
N9       N      0.242690000000     0.429330000000     0.457250000000    -0.149756   
N10      N      0.232860000000     0.453460000000     0.370530000000    -0.151219   
N11      N      0.336670000000     0.120630000000     0.167060000000    -0.149499   
N12      N      0.305390000000     0.537910000000     0.160880000000    -0.151029   
N13      N      0.351030000000     0.322240000000     0.242190000000    -0.150022   
N14      N      0.332510000000     0.375800000000     0.284220000000    -0.151513   
N15      N      0.432550000000     0.295200000000     0.061210000000    -0.151115   
N16      N      0.431760000000     0.267910000000     0.972890000000    -0.150053   
N17      N      0.361830000000     0.199820000000     0.623650000000    -0.151816   
N18      N      0.374800000000     0.197310000000     0.716340000000    -0.149357   
N19      N      0.141280000000     0.320340000000     0.630140000000    -0.151386   
N20      N      0.565200000000     0.298270000000     0.591810000000    -0.149902   
N21      N      0.342640000000     0.345710000000     0.520540000000    -0.149946   
N22      N      0.397430000000     0.328570000000     0.476310000000    -0.151677   
N23      N      0.474690000000     0.225830000000     0.396580000000    -0.151639   
N24      N      0.445550000000     0.233170000000     0.312340000000    -0.15002    
N25      N      0.288960000000     0.023420000000     0.943880000000    -0.151742   
N26      N      0.342540000000     0.592150000000     0.900670000000    -0.150409   
N27      N      0.119570000000     0.823540000000     0.843250000000    -0.149877   
N28      N      0.545790000000     0.769330000000     0.802630000000    -0.151798   
N29      N      0.210920000000     0.860870000000     0.043510000000    -0.149642   
N30      N      0.204590000000     0.847650000000     0.137360000000    -0.151679   
N31      N      0.315830000000     0.919020000000     0.800320000000    -0.150243   
N32      N      0.320390000000     0.916010000000     0.706740000000    -0.149234   
N33      N      0.242120000000     0.926130000000     0.458580000000    -0.149722   
N34      N      0.232420000000     0.951410000000     0.372550000000    -0.151282   
N35      N      0.336070000000     0.620110000000     0.164040000000    -0.149434   
N36      N      0.306120000000     0.038420000000     0.164500000000    -0.150856   
N37      N      0.350900000000     0.821450000000     0.241590000000    -0.150036   
N38      N      0.332660000000     0.874840000000     0.284590000000    -0.151491   
N39      N      0.432650000000     0.795310000000     0.060060000000    -0.151012   
N40      N      0.432170000000     0.768140000000     0.971760000000    -0.150078   
N41      N      0.361740000000     0.696090000000     0.623020000000    -0.151731   
N42      N      0.375110000000     0.694700000000     0.715850000000    -0.149412   
N43      N      0.140190000000     0.815230000000     0.629090000000    -0.151386   
N44      N      0.564530000000     0.793750000000     0.590020000000    -0.149883   
N45      N      0.342070000000     0.841680000000     0.519410000000    -0.14993    
N46      N      0.397010000000     0.824810000000     0.475110000000    -0.151663   
N47      N      0.473040000000     0.722020000000     0.394460000000    -0.151597   
N48      N      0.444200000000     0.730780000000     0.310650000000    -0.149986   
N49      N      0.787150000000     0.525080000000     0.949160000000    -0.151845   
N50      N      0.843910000000     0.092310000000     0.897900000000    -0.150486   
N51      N      0.619570000000     0.326540000000     0.842970000000    -0.149897   
N52      N      0.045850000000     0.272370000000     0.802190000000    -0.151701   
N53      N      0.710190000000     0.361150000000     0.042720000000    -0.149594   
N54      N      0.704290000000     0.347490000000     0.136430000000    -0.151661   
N55      N      0.815820000000     0.424860000000     0.799960000000    -0.150153   
N56      N      0.821260000000     0.422500000000     0.706380000000    -0.149291   
N57      N      0.742690000000     0.429330000000     0.457250000000    -0.149752   
N58      N      0.732860000000     0.453460000000     0.370530000000    -0.151212   
N59      N      0.836670000000     0.120630000000     0.167060000000    -0.149468   
N60      N      0.805390000000     0.537910000000     0.160880000000    -0.151026   
N61      N      0.851020000000     0.322240000000     0.242190000000    -0.149979   
N62      N      0.832510000000     0.375800000000     0.284220000000    -0.151536   
N63      N      0.932550000000     0.295200000000     0.061210000000    -0.151097   
N64      N      0.931760000000     0.267910000000     0.972890000000    -0.150061   
N65      N      0.861830000000     0.199820000000     0.623650000000    -0.15181    
N66      N      0.874800000000     0.197310000000     0.716340000000    -0.149346   
N67      N      0.641280000000     0.320340000000     0.630140000000    -0.151384   
N68      N      0.065200000000     0.298270000000     0.591810000000    -0.149929   
N69      N      0.842640000000     0.345710000000     0.520540000000    -0.149943   
N70      N      0.897430000000     0.328570000000     0.476310000000    -0.151666   
N71      N      0.974700000000     0.225830000000     0.396580000000    -0.151413   
N72      N      0.945550000000     0.233170000000     0.312340000000    -0.150093   
N73      N      0.788960000000     0.023420000000     0.943880000000    -0.151741   
N74      N      0.842540000000     0.592150000000     0.900670000000    -0.150404   
N75      N      0.619580000000     0.823540000000     0.843250000000    -0.149908   
N76      N      0.045790000000     0.769330000000     0.802630000000    -0.151694   
N77      N      0.710920000000     0.860870000000     0.043510000000    -0.149636   
N78      N      0.704590000000     0.847650000000     0.137360000000    -0.151671   
N79      N      0.815830000000     0.919020000000     0.800320000000    -0.150263   
N80      N      0.820390000000     0.916010000000     0.706740000000    -0.149236   
N81      N      0.742120000000     0.926130000000     0.458580000000    -0.149734   
N82      N      0.732420000000     0.951410000000     0.372550000000    -0.151275   
N83      N      0.836070000000     0.620110000000     0.164040000000    -0.149452   
N84      N      0.806130000000     0.038420000000     0.164500000000    -0.150901   
N85      N      0.850900000000     0.821450000000     0.241590000000    -0.150035   
N86      N      0.832660000000     0.874840000000     0.284590000000    -0.151486   
N87      N      0.932650000000     0.795310000000     0.060060000000    -0.151001   
N88      N      0.932170000000     0.768140000000     0.971760000000    -0.150067   
N89      N      0.861740000000     0.696090000000     0.623020000000    -0.151725   
N90      N      0.875110000000     0.694700000000     0.715850000000    -0.149401   
N91      N      0.640190000000     0.815230000000     0.629090000000    -0.151383   
N92      N      0.064530000000     0.793750000000     0.590020000000    -0.14989    
N93      N      0.842080000000     0.841680000000     0.519410000000    -0.149875   
N94      N      0.897010000000     0.824810000000     0.475110000000    -0.151652   
N95      N      0.973040000000     0.722020000000     0.394460000000    -0.151411   
N96      N      0.944200000000     0.730780000000     0.310650000000    -0.150051   
O1       O      0.451780000000     0.326350000000     0.509740000000    -0.243514   
O2       O      0.404900000000     0.202820000000     0.565680000000    -0.244598   
O3       O      0.515950000000     0.312250000000     0.565460000000    -0.245466   
O4       O      0.490570000000     0.273030000000     0.452400000000    -0.252946   
O5       O      0.438840000000     0.214550000000     0.464080000000    -0.244912   
O6       O      0.504970000000     0.252610000000     0.557740000000    -0.251591   
O7       O      0.401840000000     0.272060000000     0.482440000000    -0.252106   
O8       O      0.406350000000     0.256870000000     0.585620000000    -0.254701   
O9       O      0.329930000000     0.176050000000     0.179270000000    -0.241931   
O10      O      0.449430000000     0.264340000000     0.243330000000    -0.242293   
O11      O      0.337500000000     0.258920000000     0.223310000000    -0.244379   
O12      O      0.382020000000     0.264810000000     0.115410000000    -0.252735   
O13      O      0.442360000000     0.275300000000     0.132360000000    -0.2444     
O14      O      0.398970000000     0.307800000000     0.214460000000    -0.251165   
O15      O      0.390460000000     0.184650000000     0.168630000000    -0.251256   
O16      O      0.391020000000     0.215650000000     0.264670000000    -0.253293   
O17      O      0.196960000000     0.319530000000     0.598160000000    -0.243256   
O18      O      0.277940000000     0.436470000000     0.524990000000    -0.244203   
O19      O      0.277700000000     0.331370000000     0.542390000000    -0.244001   
O20      O      0.293160000000     0.375530000000     0.649450000000    -0.250622   
O21      O      0.293870000000     0.430940000000     0.639320000000    -0.242312   
O22      O      0.327920000000     0.390910000000     0.552920000000    -0.250639   
O23      O      0.202810000000     0.376210000000     0.615380000000    -0.250691   
O24      O      0.226440000000     0.379060000000     0.508790000000    -0.253089   
O25      O      0.319710000000     0.493870000000     0.198500000000    -0.24547    
O26      O      0.219000000000     0.419230000000     0.302120000000    -0.245586   
O27      O      0.331900000000     0.430270000000     0.253160000000    -0.242457   
O28      O      0.260880000000     0.386470000000     0.180000000000    -0.253773   
O29      O      0.206360000000     0.389260000000     0.194130000000    -0.243458   
O30      O      0.275050000000     0.381360000000     0.278020000000    -0.250618   
O31      O      0.257660000000     0.482350000000     0.199410000000    -0.250761   
O32      O      0.279000000000     0.470260000000     0.311460000000    -0.253027   
O33      O      0.233590000000     0.469460000000     0.915780000000    -0.242136   
O34      O      0.277930000000     0.442950000000     0.844690000000    -0.253487   
O35      O      0.167810000000     0.389760000000     0.866450000000    -0.244954   
O36      O      0.195210000000     0.386260000000     0.979110000000    -0.252344   
O37      O      0.245310000000     0.374560000000     0.973900000000    -0.243437   
O38      O      0.180150000000     0.341930000000     0.877960000000    -0.251286   
O39      O      0.283670000000     0.464610000000     0.944980000000    -0.251025   
O40      O      0.275400000000     0.387610000000     0.860570000000    -0.244323   
O41      O      0.491380000000     0.215470000000     0.832270000000    -0.243667   
O42      O      0.402740000000     0.244810000000     0.901460000000    -0.244958   
O43      O      0.409120000000     0.143670000000     0.881940000000    -0.244885   
O44      O      0.402050000000     0.177960000000     0.774350000000    -0.251269   
O45      O      0.390930000000     0.226490000000     0.788170000000    -0.242059   
O46      O      0.357890000000     0.152040000000     0.867130000000    -0.251756   
O47      O      0.482550000000     0.264870000000     0.815540000000    -0.251956   
O48      O      0.454030000000     0.238200000000     0.921580000000    -0.253677   
O49      O      0.451220000000     0.822360000000     0.508600000000    -0.243483   
O50      O      0.404570000000     0.698860000000     0.564870000000    -0.244693   
O51      O      0.515300000000     0.807930000000     0.564070000000    -0.245429   
O52      O      0.489660000000     0.768880000000     0.450880000000    -0.252827   
O53      O      0.437470000000     0.710610000000     0.462220000000    -0.244808   
O54      O      0.504360000000     0.748360000000     0.555610000000    -0.251486   
O55      O      0.401230000000     0.768190000000     0.481130000000    -0.252045   
O56      O      0.405660000000     0.752870000000     0.584170000000    -0.25475    
O57      O      0.329450000000     0.675510000000     0.176940000000    -0.241884   
O58      O      0.448720000000     0.762670000000     0.241980000000    -0.242301   
O59      O      0.337210000000     0.758220000000     0.222020000000    -0.244469   
O60      O      0.381900000000     0.764560000000     0.113970000000    -0.252637   
O61      O      0.442200000000     0.775040000000     0.131110000000    -0.244396   
O62      O      0.398750000000     0.807040000000     0.213480000000    -0.251293   
O63      O      0.389970000000     0.684050000000     0.166330000000    -0.251226   
O64      O      0.389960000000     0.714260000000     0.262850000000    -0.253252   
O65      O      0.196030000000     0.814660000000     0.597240000000    -0.24321    
O66      O      0.277240000000     0.932380000000     0.526180000000    -0.244061   
O67      O      0.277080000000     0.827040000000     0.541420000000    -0.244147   
O68      O      0.291510000000     0.869430000000     0.649510000000    -0.250688   
O69      O      0.293580000000     0.925530000000     0.639850000000    -0.242318   
O70      O      0.327220000000     0.886500000000     0.552610000000    -0.250891   
O71      O      0.201940000000     0.871190000000     0.615410000000    -0.250731   
O72      O      0.225920000000     0.875130000000     0.509020000000    -0.253051   
O73      O      0.320150000000     0.993780000000     0.201130000000    -0.244981   
O74      O      0.218910000000     0.917940000000     0.303640000000    -0.24567    
O75      O      0.332080000000     0.929560000000     0.254270000000    -0.242296   
O76      O      0.261020000000     0.886090000000     0.181390000000    -0.25386    
O77      O      0.206720000000     0.889380000000     0.195140000000    -0.243461   
O78      O      0.275260000000     0.880570000000     0.279080000000    -0.250584   
O79      O      0.258100000000     0.982260000000     0.201860000000    -0.250272   
O80      O      0.278840000000     0.968880000000     0.313680000000    -0.252996   
O81      O      0.234490000000     0.966990000000     0.913080000000    -0.241901   
O82      O      0.278950000000     0.938770000000     0.844330000000    -0.253148   
O83      O      0.168330000000     0.886910000000     0.865650000000    -0.244808   
O84      O      0.196060000000     0.885230000000     0.979130000000    -0.252443   
O85      O      0.245620000000     0.872710000000     0.974580000000    -0.243761   
O86      O      0.179940000000     0.838810000000     0.878710000000    -0.251212   
O87      O      0.284770000000     0.962560000000     0.942430000000    -0.250565   
O88      O      0.274690000000     0.882810000000     0.861010000000    -0.244206   
O89      O      0.490840000000     0.713080000000     0.833170000000    -0.243659   
O90      O      0.403020000000     0.744400000000     0.900520000000    -0.244946   
O91      O      0.408010000000     0.642470000000     0.883590000000    -0.245086   
O92      O      0.402070000000     0.675820000000     0.774650000000    -0.251457   
O93      O      0.391010000000     0.724530000000     0.787340000000    -0.242293   
O94      O      0.357310000000     0.651420000000     0.867890000000    -0.251791   
O95      O      0.482730000000     0.762680000000     0.815150000000    -0.251831   
O96      O      0.454150000000     0.737720000000     0.921120000000    -0.253647   
O97      O      0.951780000000     0.326350000000     0.509740000000    -0.243448   
O98      O      0.904900000000     0.202820000000     0.565680000000    -0.244551   
O99      O      0.015950000000     0.312250000000     0.565460000000    -0.245652   
O100     O      0.990570000000     0.273030000000     0.452400000000    -0.25279    
O101     O      0.938840000000     0.214550000000     0.464080000000    -0.244869   
O102     O      0.004970000000     0.252610000000     0.557740000000    -0.251788   
O103     O      0.901830000000     0.272060000000     0.482440000000    -0.252108   
O104     O      0.906350000000     0.256870000000     0.585620000000    -0.254661   
O105     O      0.829930000000     0.176050000000     0.179270000000    -0.241895   
O106     O      0.949430000000     0.264340000000     0.243330000000    -0.242224   
O107     O      0.837500000000     0.258920000000     0.223310000000    -0.244351   
O108     O      0.882020000000     0.264810000000     0.115410000000    -0.25265    
O109     O      0.942360000000     0.275300000000     0.132360000000    -0.244412   
O110     O      0.898970000000     0.307800000000     0.214460000000    -0.251123   
O111     O      0.890470000000     0.184650000000     0.168630000000    -0.251136   
O112     O      0.891020000000     0.215650000000     0.264670000000    -0.253296   
O113     O      0.696960000000     0.319530000000     0.598160000000    -0.243246   
O114     O      0.777940000000     0.436470000000     0.524990000000    -0.244191   
O115     O      0.777700000000     0.331370000000     0.542390000000    -0.243992   
O116     O      0.793160000000     0.375530000000     0.649450000000    -0.250615   
O117     O      0.793870000000     0.430940000000     0.639320000000    -0.242302   
O118     O      0.827920000000     0.390910000000     0.552920000000    -0.250626   
O119     O      0.702810000000     0.376210000000     0.615380000000    -0.250685   
O120     O      0.726440000000     0.379060000000     0.508790000000    -0.25308    
O121     O      0.819710000000     0.493870000000     0.198500000000    -0.245455   
O122     O      0.719000000000     0.419230000000     0.302120000000    -0.245567   
O123     O      0.831900000000     0.430270000000     0.253160000000    -0.242484   
O124     O      0.760880000000     0.386470000000     0.180000000000    -0.253767   
O125     O      0.706360000000     0.389260000000     0.194130000000    -0.243436   
O126     O      0.775060000000     0.381360000000     0.278020000000    -0.250714   
O127     O      0.757660000000     0.482350000000     0.199410000000    -0.250747   
O128     O      0.779000000000     0.470260000000     0.311460000000    -0.253017   
O129     O      0.733590000000     0.469460000000     0.915780000000    -0.24212    
O130     O      0.777930000000     0.442950000000     0.844690000000    -0.253483   
O131     O      0.667810000000     0.389760000000     0.866450000000    -0.244933   
O132     O      0.695210000000     0.386260000000     0.979110000000    -0.252321   
O133     O      0.745310000000     0.374560000000     0.973900000000    -0.243427   
O134     O      0.680150000000     0.341930000000     0.877960000000    -0.251273   
O135     O      0.783670000000     0.464610000000     0.944980000000    -0.251017   
O136     O      0.775400000000     0.387610000000     0.860570000000    -0.244314   
O137     O      0.991380000000     0.215470000000     0.832270000000    -0.243215   
O138     O      0.902740000000     0.244810000000     0.901460000000    -0.244944   
O139     O      0.909110000000     0.143670000000     0.881940000000    -0.24497    
O140     O      0.902050000000     0.177960000000     0.774350000000    -0.251238   
O141     O      0.890930000000     0.226490000000     0.788170000000    -0.242043   
O142     O      0.857890000000     0.152040000000     0.867130000000    -0.251786   
O143     O      0.982550000000     0.264870000000     0.815540000000    -0.251508   
O144     O      0.954030000000     0.238200000000     0.921580000000    -0.253622   
O145     O      0.951220000000     0.822360000000     0.508600000000    -0.243404   
O146     O      0.904570000000     0.698860000000     0.564870000000    -0.244646   
O147     O      0.015290000000     0.807930000000     0.564070000000    -0.245533   
O148     O      0.989650000000     0.768880000000     0.450880000000    -0.252704   
O149     O      0.937470000000     0.710610000000     0.462220000000    -0.244775   
O150     O      0.004360000000     0.748360000000     0.555610000000    -0.251654   
O151     O      0.901230000000     0.768190000000     0.481130000000    -0.252039   
O152     O      0.905660000000     0.752870000000     0.584170000000    -0.25471    
O153     O      0.829450000000     0.675510000000     0.176940000000    -0.241901   
O154     O      0.948720000000     0.762670000000     0.241980000000    -0.242234   
O155     O      0.837210000000     0.758220000000     0.222020000000    -0.244459   
O156     O      0.881900000000     0.764560000000     0.113970000000    -0.252626   
O157     O      0.942200000000     0.775040000000     0.131110000000    -0.244352   
O158     O      0.898750000000     0.807040000000     0.213480000000    -0.251269   
O159     O      0.889960000000     0.684050000000     0.166330000000    -0.251301   
O160     O      0.889960000000     0.714260000000     0.262850000000    -0.253252   
O161     O      0.696030000000     0.814660000000     0.597240000000    -0.243198   
O162     O      0.777230000000     0.932380000000     0.526180000000    -0.244112   
O163     O      0.777080000000     0.827040000000     0.541420000000    -0.244119   
O164     O      0.791510000000     0.869430000000     0.649510000000    -0.250682   
O165     O      0.793580000000     0.925530000000     0.639850000000    -0.242308   
O166     O      0.827220000000     0.886500000000     0.552610000000    -0.25086    
O167     O      0.701940000000     0.871190000000     0.615410000000    -0.250722   
O168     O      0.725920000000     0.875130000000     0.509020000000    -0.253065   
O169     O      0.820140000000     0.993780000000     0.201130000000    -0.245005   
O170     O      0.718910000000     0.917940000000     0.303640000000    -0.24565    
O171     O      0.832080000000     0.929560000000     0.254270000000    -0.242284   
O172     O      0.761020000000     0.886090000000     0.181390000000    -0.253855   
O173     O      0.706720000000     0.889380000000     0.195140000000    -0.243435   
O174     O      0.775260000000     0.880570000000     0.279080000000    -0.250577   
O175     O      0.758100000000     0.982260000000     0.201860000000    -0.250359   
O176     O      0.778840000000     0.968880000000     0.313680000000    -0.252985   
O177     O      0.734490000000     0.966990000000     0.913080000000    -0.241827   
O178     O      0.778950000000     0.938770000000     0.844330000000    -0.253066   
O179     O      0.668340000000     0.886910000000     0.865650000000    -0.244837   
O180     O      0.696060000000     0.885230000000     0.979130000000    -0.252419   
O181     O      0.745620000000     0.872710000000     0.974580000000    -0.243751   
O182     O      0.679940000000     0.838810000000     0.878710000000    -0.251214   
O183     O      0.784770000000     0.962560000000     0.942430000000    -0.25063    
O184     O      0.774690000000     0.882810000000     0.861010000000    -0.24418    
O185     O      0.990850000000     0.713080000000     0.833170000000    -0.243214   
O186     O      0.903020000000     0.744400000000     0.900520000000    -0.244916   
O187     O      0.908010000000     0.642470000000     0.883590000000    -0.245068   
O188     O      0.902070000000     0.675820000000     0.774650000000    -0.251429   
O189     O      0.891010000000     0.724530000000     0.787340000000    -0.242261   
O190     O      0.857310000000     0.651420000000     0.867890000000    -0.251769   
O191     O      0.982730000000     0.762680000000     0.815150000000    -0.251397   
O192     O      0.954150000000     0.737720000000     0.921120000000    -0.253602   


