data_structure

_audit_creation_method RASPA-1.0
_audit_creation_date 2023-5-22
_audit_author_name 'Poobodin Mano'

_cell_length_a    39.972
_cell_length_b    39.6145
_cell_length_c    53.1943
_cell_angle_alpha 90.0002
_cell_angle_beta  90.0833
_cell_angle_gamma 119.986
_cell_volume      72956.9

_symmetry_cell_setting          triclinic
_symmetry_space_group_name_Hall 'P 1'
_symmetry_space_group_name_H-M  'P 1'
_symmetry_Int_Tables_number     1

_symmetry_equiv_pos_as_xyz 'x,y,z'

loop_
_atom_site_label
_atom_site_type_symbol
_atom_site_fract_x
_atom_site_fract_y
_atom_site_fract_z
_atom_site_charge
C1       C      0.604140000000     0.523420000000     0.032820000000     0.340036   
C2       C      0.700200000000     0.510020000000     0.075860000000     0.339911   
C3       C      0.603260000000     0.534950000000     0.115470000000     0.341373   
C4       C      0.581940000000     0.411210000000     0.085810000000     0.3419     
C5       C      0.600160000000     0.710810000000     0.313870000000     0.33927    
C6       C      0.568260000000     0.594510000000     0.365770000000     0.339946   
C7       C      0.478370000000     0.621370000000     0.325530000000     0.341057   
C8       C      0.570100000000     0.588340000000     0.282610000000     0.341296   
C9       C      0.955530000000     0.591770000000     0.061360000000     0.341276   
C10      C      0.029890000000     0.556220000000     0.118910000000     0.337433   
C11      C      0.923000000000     0.469110000000     0.070410000000     0.341557   
C12      C      0.051780000000     0.564730000000     0.034130000000     0.341804   
C13      C      0.158720000000     0.607940000000     0.281700000000     0.337572   
C14      C      0.257140000000     0.702640000000     0.330420000000     0.342632   
C15      C      0.130550000000     0.601760000000     0.366330000000     0.343218   
C16      C      0.230740000000     0.579070000000     0.344260000000     0.340134   
C17      C      0.628600000000     0.085900000000     0.043130000000     0.343221   
C18      C      0.618750000000     0.191980000000     0.082670000000     0.340497   
C19      C      0.637660000000     0.094860000000     0.125860000000     0.340721   
C20      C      0.735370000000     0.201720000000     0.080470000000     0.340705   
C21      C      0.524150000000     0.886550000000     0.329470000000     0.341601   
C22      C      0.608180000000     0.004920000000     0.372940000000     0.339645   
C23      C      0.651850000000     0.943200000000     0.312450000000     0.340597   
C24      C      0.596060000000     0.020250000000     0.292760000000     0.344446   
C25      C      0.634490000000     0.082150000000     0.269780000000     0.0117548  
C26      C      0.590660000000     0.043180000000     0.154180000000     0.00992906 
C27      C      0.660920000000     0.073710000000     0.162410000000     0.0105364  
C28      C      0.582860000000     0.053400000000     0.180500000000    -0.0989763  
C29      C      0.644160000000     0.077120000000     0.242820000000    -0.0990554  
C30      C      0.657460000000     0.087450000000     0.188580000000    -0.0991504  
C31      C      0.609930000000     0.062520000000     0.224610000000     0.0197917  
C32      C      0.616300000000     0.065170000000     0.199060000000     0.0194778  
C33      C      0.564100000000     0.043480000000     0.263020000000     0.0106222  
C34      C      0.568660000000     0.038220000000     0.234890000000    -0.0986276  
C35      C      0.577860000000     0.041630000000     0.013280000000     0.0104644  
C36      C      0.652640000000     0.040790000000     0.408020000000     0.00997117 
C37      C      0.590840000000     0.040910000000     0.403470000000     0.00972565 
C38      C      0.644530000000     0.028150000000     0.435520000000    -0.0995287  
C39      C      0.582680000000     0.047970000000     0.984850000000    -0.0988044  
C40      C      0.579870000000     0.029000000000     0.430920000000    -0.0993204  
C41      C      0.613170000000     0.040120000000     0.973150000000     0.0193474  
C42      C      0.613950000000     0.035490000000     0.447510000000     0.0194001  
C43      C      0.638230000000     0.039150000000     0.017580000000     0.0106604  
C44      C      0.647240000000     0.045890000000     0.989510000000    -0.0989308  
C45      C      0.304500000000     0.762570000000     0.352930000000     0.00983955 
C46      C      0.473480000000     0.827480000000     0.308000000000     0.0101691  
C47      C      0.473580000000     0.832060000000     0.354460000000     0.00982266 
C48      C      0.431970000000     0.819340000000     0.305840000000    -0.0990167  
C49      C      0.346800000000     0.772900000000     0.355040000000    -0.0985591  
C50      C      0.431660000000     0.823320000000     0.355060000000    -0.098869   
C51      C      0.369460000000     0.786260000000     0.330330000000     0.0186201  
C52      C      0.409300000000     0.806280000000     0.330520000000     0.0190102  
C53      C      0.305220000000     0.760170000000     0.306470000000     0.0101055  
C54      C      0.347310000000     0.769760000000     0.305660000000    -0.0986229  
C55      C      0.796010000000     0.241470000000     0.056570000000     0.00989318 
C56      C      0.866380000000     0.417150000000     0.092790000000     0.00998567 
C57      C      0.873490000000     0.411870000000     0.046760000000     0.00956408 
C58      C      0.860050000000     0.376340000000     0.097620000000    -0.099455   
C59      C      0.811600000000     0.285130000000     0.052330000000    -0.0985458  
C60      C      0.866050000000     0.370140000000     0.049240000000    -0.0994169  
C61      C      0.825610000000     0.310480000000     0.076100000000     0.0189204  
C62      C      0.847160000000     0.350510000000     0.074140000000     0.0191444  
C63      C      0.795470000000     0.248120000000     0.102730000000     0.0106725  
C64      C      0.808690000000     0.291510000000     0.101540000000    -0.0987422  
C65      C      0.052980000000     0.529550000000     0.152360000000     0.00729677 
C66      C      0.125860000000     0.623950000000     0.248250000000     0.00809927 
C67      C      0.153690000000     0.580240000000     0.239340000000     0.0072976  
C68      C      0.090690000000     0.597710000000     0.232040000000    -0.100605   
C69      C      0.089840000000     0.546570000000     0.168470000000    -0.10058    
C70      C      0.119340000000     0.554670000000     0.222100000000    -0.100558   
C71      C      0.091490000000     0.576630000000     0.186950000000     0.0200393  
C72      C      0.101230000000     0.577610000000     0.211800000000     0.020038   
C73      C      0.048220000000     0.590050000000     0.159900000000     0.00799915 
C74      C      0.086080000000     0.608140000000     0.174640000000    -0.100641   
C75      C      0.078290000000     0.552160000000     0.393070000000     0.0102426  
C76      C      0.103180000000     0.613290000000     0.006430000000     0.0103272  
C77      C      0.084420000000     0.543730000000     0.003420000000     0.0103839  
C78      C      0.093310000000     0.615220000000     0.978840000000    -0.0989819  
C79      C      0.087230000000     0.550040000000     0.420860000000    -0.0987568  
C80      C      0.073660000000     0.541350000000     0.975560000000    -0.0989325  
C81      C      0.091320000000     0.584100000000     0.436900000000     0.0194482  
C82      C      0.088900000000     0.581070000000     0.962760000000     0.0195043  
C83      C      0.095740000000     0.621310000000     0.396220000000     0.0104539  
C84      C      0.106190000000     0.623790000000     0.424130000000    -0.0988962  
C85      C      0.704970000000     0.931050000000     0.324080000000     0.0105838  
C86      C      0.619890000000     0.768080000000     0.286410000000     0.00721796 
C87      C      0.643440000000     0.776130000000     0.331610000000     0.00730731 
C88      C      0.659920000000     0.800880000000     0.278490000000    -0.100281   
C89      C      0.695460000000     0.888610000000     0.325880000000    -0.0983707  
C90      C      0.683310000000     0.808370000000     0.323160000000    -0.100408   
C91      C      0.684190000000     0.865920000000     0.301030000000     0.0201774  
C92      C      0.678620000000     0.828750000000     0.300390000000     0.0197257  
C93      C      0.683900000000     0.924520000000     0.279890000000     0.0106636  
C94      C      0.672060000000     0.881380000000     0.278440000000    -0.0984892  
C95      C      0.415260000000     0.603960000000     0.306300000000     0.00942017 
C96      C      0.270230000000     0.565020000000     0.373760000000     0.010675   
C97      C      0.252520000000     0.532660000000     0.332420000000     0.0104177  
C98      C      0.313580000000     0.585580000000     0.368300000000    -0.0982823  
C99      C      0.375900000000     0.572120000000     0.315860000000    -0.0998408  
C100     C      0.294500000000     0.551120000000     0.323700000000    -0.0983777  
C101     C      0.363160000000     0.584400000000     0.339610000000     0.019196   
C102     C      0.324840000000     0.572010000000     0.344350000000     0.0189482  
C103     C      0.432980000000     0.635600000000     0.348500000000     0.00940082 
C104     C      0.394360000000     0.604970000000     0.359680000000    -0.099776   
C105     C      0.753320000000     0.509300000000     0.052350000000     0.00948088 
C106     C      0.927460000000     0.630850000000     0.077390000000     0.0106535  
C107     C      0.917270000000     0.609360000000     0.033290000000     0.0109705  
C108     C      0.884630000000     0.605850000000     0.084120000000    -0.0983333  
C109     C      0.789550000000     0.546430000000     0.043770000000    -0.0997027  
C110     C      0.873780000000     0.582210000000     0.036560000000    -0.0983671  
C111     C      0.817940000000     0.566790000000     0.065390000000     0.019396   
C112     C      0.857330000000     0.586210000000     0.061740000000     0.0194101  
C113     C      0.763250000000     0.532200000000     0.096820000000     0.00940155 
C114     C      0.800030000000     0.570130000000     0.090010000000    -0.0996307  
C115     C      0.543680000000     0.343940000000     0.069170000000     0.00964316 
C116     C      0.581740000000     0.217070000000     0.105250000000     0.00876605 
C117     C      0.604710000000     0.237650000000     0.060260000000     0.00859497 
C118     C      0.588560000000     0.258390000000     0.109070000000    -0.100252   
C119     C      0.564570000000     0.321380000000     0.063090000000    -0.0992606  
C120     C      0.576440000000     0.253200000000     0.060980000000    -0.100919   
C121     C      0.575420000000     0.306670000000     0.086580000000     0.0184357  
C122     C      0.579960000000     0.274550000000     0.085530000000     0.0189677  
C123     C      0.566660000000     0.354910000000     0.113390000000     0.00966689 
C124     C      0.589570000000     0.333890000000     0.109410000000    -0.0994322  
C125     C      0.626100000000     0.571730000000     0.998320000000     0.0090432  
C126     C      0.548480000000     0.538570000000     0.394610000000     0.00801589 
C127     C      0.612660000000     0.599690000000     0.399940000000     0.00907799 
C128     C      0.540720000000     0.537240000000     0.422980000000    -0.100321   
C129     C      0.625370000000     0.561790000000     0.970550000000    -0.10072    
C130     C      0.604730000000     0.601040000000     0.427850000000    -0.100766   
C131     C      0.585070000000     0.546640000000     0.959780000000     0.0197611  
C132     C      0.578200000000     0.560090000000     0.437740000000     0.0197806  
C133     C      0.555930000000     0.520970000000     0.002420000000     0.00791159 
C134     C      0.553440000000     0.512220000000     0.974120000000    -0.100279   
C135     C      0.548110000000     0.533320000000     0.252640000000     0.0103339  
C136     C      0.623830000000     0.590950000000     0.144420000000     0.0105106  
C137     C      0.555070000000     0.539570000000     0.142300000000     0.0105656  
C138     C      0.626560000000     0.585040000000     0.172600000000    -0.0989377  
C139     C      0.545430000000     0.539910000000     0.224550000000    -0.0989568  
C140     C      0.553300000000     0.530510000000     0.170370000000    -0.0990394  
C141     C      0.584680000000     0.563020000000     0.211450000000     0.0193854  
C142     C      0.587350000000     0.561570000000     0.185680000000     0.0195044  
C143     C      0.617280000000     0.583770000000     0.254710000000     0.0103498  
C144     C      0.618800000000     0.593800000000     0.226830000000    -0.098924   
C145     C      0.604140000000     0.523420000000     0.532820000000     0.340075   
C146     C      0.700200000000     0.510020000000     0.575860000000     0.339812   
C147     C      0.603260000000     0.534960000000     0.615470000000     0.341465   
C148     C      0.581940000000     0.411210000000     0.585810000000     0.341906   
C149     C      0.600160000000     0.710810000000     0.813870000000     0.339342   
C150     C      0.568260000000     0.594510000000     0.865760000000     0.34017    
C151     C      0.478370000000     0.621370000000     0.825530000000     0.341057   
C152     C      0.570090000000     0.588340000000     0.782610000000     0.341343   
C153     C      0.955530000000     0.591770000000     0.561360000000     0.341358   
C154     C      0.029890000000     0.556220000000     0.618910000000     0.337432   
C155     C      0.922990000000     0.469110000000     0.570410000000     0.341515   
C156     C      0.051780000000     0.564720000000     0.534130000000     0.341786   
C157     C      0.158720000000     0.607940000000     0.781700000000     0.337572   
C158     C      0.257140000000     0.702640000000     0.830420000000     0.342843   
C159     C      0.130550000000     0.601760000000     0.866320000000     0.343299   
C160     C      0.230740000000     0.579070000000     0.844260000000     0.339985   
C161     C      0.628610000000     0.085900000000     0.543130000000     0.343145   
C162     C      0.618750000000     0.191980000000     0.582670000000     0.340545   
C163     C      0.637660000000     0.094860000000     0.625860000000     0.340842   
C164     C      0.735370000000     0.201720000000     0.580470000000     0.340697   
C165     C      0.524150000000     0.886550000000     0.829470000000     0.341547   
C166     C      0.608180000000     0.004920000000     0.872940000000     0.339645   
C167     C      0.651850000000     0.943200000000     0.812450000000     0.34061    
C168     C      0.596060000000     0.020250000000     0.792760000000     0.344348   
C169     C      0.634490000000     0.082150000000     0.769780000000     0.0117682  
C170     C      0.590660000000     0.043180000000     0.654180000000     0.00989878 
C171     C      0.660920000000     0.073710000000     0.662410000000     0.0106003  
C172     C      0.582860000000     0.053400000000     0.680500000000    -0.0990032  
C173     C      0.644170000000     0.077120000000     0.742820000000    -0.099129   
C174     C      0.657460000000     0.087450000000     0.688580000000    -0.0991746  
C175     C      0.609920000000     0.062520000000     0.724610000000     0.0197946  
C176     C      0.616300000000     0.065170000000     0.699060000000     0.0194839  
C177     C      0.564100000000     0.043480000000     0.763010000000     0.0106279  
C178     C      0.568660000000     0.038220000000     0.734890000000    -0.0986434  
C179     C      0.577860000000     0.041630000000     0.513280000000     0.0104497  
C180     C      0.652640000000     0.040790000000     0.908020000000     0.00999217 
C181     C      0.590840000000     0.040910000000     0.903470000000     0.0097206  
C182     C      0.644530000000     0.028150000000     0.935510000000    -0.0994686  
C183     C      0.582680000000     0.047970000000     0.484850000000    -0.0987852  
C184     C      0.579870000000     0.029000000000     0.930920000000    -0.0993026  
C185     C      0.613170000000     0.040120000000     0.473150000000     0.0193297  
C186     C      0.613950000000     0.035490000000     0.947510000000     0.0193581  
C187     C      0.638230000000     0.039150000000     0.517580000000     0.0106322  
C188     C      0.647240000000     0.045890000000     0.489510000000    -0.0989052  
C189     C      0.304500000000     0.762570000000     0.852930000000     0.00984915 
C190     C      0.473480000000     0.827480000000     0.808000000000     0.0102734  
C191     C      0.473580000000     0.832060000000     0.854460000000     0.00973567 
C192     C      0.431970000000     0.819340000000     0.805840000000    -0.0991161  
C193     C      0.346800000000     0.772900000000     0.855040000000    -0.0985568  
C194     C      0.431660000000     0.823320000000     0.855060000000    -0.0989103  
C195     C      0.369460000000     0.786260000000     0.830330000000     0.0186048  
C196     C      0.409300000000     0.806280000000     0.830520000000     0.0190457  
C197     C      0.305220000000     0.760170000000     0.806470000000     0.0101125  
C198     C      0.347310000000     0.769760000000     0.805660000000    -0.0986208  
C199     C      0.796010000000     0.241470000000     0.556570000000     0.00988253 
C200     C      0.866380000000     0.417140000000     0.592790000000     0.0100393  
C201     C      0.873490000000     0.411870000000     0.546760000000     0.00956641 
C202     C      0.860050000000     0.376340000000     0.597620000000    -0.0994723  
C203     C      0.811610000000     0.285130000000     0.552330000000    -0.0985298  
C204     C      0.866050000000     0.370140000000     0.549240000000    -0.0994001  
C205     C      0.825610000000     0.310480000000     0.576110000000     0.0189373  
C206     C      0.847160000000     0.350510000000     0.574140000000     0.0191384  
C207     C      0.795470000000     0.248120000000     0.602730000000     0.0106806  
C208     C      0.808690000000     0.291510000000     0.601540000000    -0.0988038  
C209     C      0.052980000000     0.529550000000     0.652360000000     0.00730636 
C210     C      0.125860000000     0.623950000000     0.748250000000     0.00809322 
C211     C      0.153690000000     0.580240000000     0.739340000000     0.00728012 
C212     C      0.090690000000     0.597710000000     0.732040000000    -0.100589   
C213     C      0.089840000000     0.546570000000     0.668470000000    -0.100612   
C214     C      0.119340000000     0.554670000000     0.722100000000    -0.100515   
C215     C      0.091500000000     0.576630000000     0.686940000000     0.0200853  
C216     C      0.101230000000     0.577600000000     0.711800000000     0.0200128  
C217     C      0.048220000000     0.590050000000     0.659900000000     0.00800599 
C218     C      0.086080000000     0.608140000000     0.674640000000    -0.100663   
C219     C      0.078290000000     0.552160000000     0.893070000000     0.0102238  
C220     C      0.103180000000     0.613290000000     0.506430000000     0.0103105  
C221     C      0.084420000000     0.543730000000     0.503420000000     0.0103656  
C222     C      0.093310000000     0.615220000000     0.478840000000    -0.0989402  
C223     C      0.087240000000     0.550040000000     0.920860000000    -0.0987807  
C224     C      0.073660000000     0.541340000000     0.475560000000    -0.0989117  
C225     C      0.091320000000     0.584100000000     0.936900000000     0.0194316  
C226     C      0.088900000000     0.581070000000     0.462760000000     0.0194694  
C227     C      0.095740000000     0.621310000000     0.896220000000     0.0104149  
C228     C      0.106190000000     0.623790000000     0.924130000000    -0.098876   
C229     C      0.704970000000     0.931050000000     0.824080000000     0.0106026  
C230     C      0.619890000000     0.768070000000     0.786410000000     0.00722931 
C231     C      0.643440000000     0.776130000000     0.831610000000     0.00727871 
C232     C      0.659920000000     0.800880000000     0.778490000000    -0.1002     
C233     C      0.695460000000     0.888610000000     0.825880000000    -0.0983844  
C234     C      0.683300000000     0.808370000000     0.823160000000    -0.100254   
C235     C      0.684190000000     0.865920000000     0.801030000000     0.0202103  
C236     C      0.678620000000     0.828750000000     0.800390000000     0.0196683  
C237     C      0.683900000000     0.924510000000     0.779890000000     0.0106907  
C238     C      0.672060000000     0.881380000000     0.778440000000    -0.0985102  
C239     C      0.415260000000     0.603960000000     0.806300000000     0.00937676 
C240     C      0.270230000000     0.565020000000     0.873770000000     0.0104749  
C241     C      0.252520000000     0.532660000000     0.832420000000     0.0104047  
C242     C      0.313580000000     0.585570000000     0.868300000000    -0.0981473  
C243     C      0.375900000000     0.572120000000     0.815860000000    -0.0998224  
C244     C      0.294500000000     0.551120000000     0.823700000000    -0.0983629  
C245     C      0.363160000000     0.584400000000     0.839610000000     0.0191849  
C246     C      0.324840000000     0.572010000000     0.844350000000     0.0189271  
C247     C      0.432980000000     0.635600000000     0.848500000000     0.00943685 
C248     C      0.394370000000     0.604970000000     0.859680000000    -0.0997783  
C249     C      0.753320000000     0.509300000000     0.552350000000     0.00947139 
C250     C      0.927460000000     0.630850000000     0.577400000000     0.0105385  
C251     C      0.917270000000     0.609360000000     0.533290000000     0.0109892  
C252     C      0.884630000000     0.605850000000     0.584120000000    -0.098322   
C253     C      0.789550000000     0.546430000000     0.543770000000    -0.0996785  
C254     C      0.873780000000     0.582210000000     0.536560000000    -0.0983461  
C255     C      0.817950000000     0.566790000000     0.565390000000     0.0193817  
C256     C      0.857330000000     0.586210000000     0.561740000000     0.0194168  
C257     C      0.763250000000     0.532200000000     0.596820000000     0.00935173 
C258     C      0.800040000000     0.570130000000     0.590010000000    -0.0995991  
C259     C      0.543680000000     0.343940000000     0.569160000000     0.00955065 
C260     C      0.581740000000     0.217070000000     0.605250000000     0.00878501 
C261     C      0.604710000000     0.237650000000     0.560260000000     0.00856593 
C262     C      0.588560000000     0.258390000000     0.609070000000    -0.1003     
C263     C      0.564570000000     0.321380000000     0.563090000000    -0.0992214  
C264     C      0.576440000000     0.253200000000     0.560990000000    -0.100848   
C265     C      0.575420000000     0.306670000000     0.586580000000     0.0184084  
C266     C      0.579960000000     0.274550000000     0.585530000000     0.0189944  
C267     C      0.566660000000     0.354900000000     0.613380000000     0.00983042 
C268     C      0.589570000000     0.333900000000     0.609410000000    -0.0994668  
C269     C      0.626100000000     0.571730000000     0.498320000000     0.00912208 
C270     C      0.548480000000     0.538570000000     0.894610000000     0.00797001 
C271     C      0.612660000000     0.599690000000     0.899940000000     0.00906128 
C272     C      0.540720000000     0.537240000000     0.922980000000    -0.100282   
C273     C      0.625370000000     0.561790000000     0.470550000000    -0.100772   
C274     C      0.604730000000     0.601040000000     0.927840000000    -0.100642   
C275     C      0.585070000000     0.546640000000     0.459780000000     0.0197409  
C276     C      0.578200000000     0.560090000000     0.937740000000     0.0197145  
C277     C      0.555930000000     0.520970000000     0.502420000000     0.0078745  
C278     C      0.553440000000     0.512220000000     0.474120000000    -0.100202   
C279     C      0.548110000000     0.533320000000     0.752640000000     0.0103207  
C280     C      0.623830000000     0.590950000000     0.644420000000     0.0105257  
C281     C      0.555060000000     0.539570000000     0.642300000000     0.0104709  
C282     C      0.626570000000     0.585040000000     0.672600000000    -0.0989596  
C283     C      0.545430000000     0.539910000000     0.724550000000    -0.0989494  
C284     C      0.553300000000     0.530510000000     0.670370000000    -0.0989893  
C285     C      0.584680000000     0.563020000000     0.711450000000     0.0193986  
C286     C      0.587350000000     0.561570000000     0.685680000000     0.0194817  
C287     C      0.617280000000     0.583770000000     0.754710000000     0.0103514  
C288     C      0.618800000000     0.593800000000     0.726830000000    -0.0989442  
Cd1      Cd     0.621670000000     0.494420000000     0.077740000000     0.505982   
Cd2      Cd     0.553510000000     0.628000000000     0.321900000000     0.506403   
Cd3      Cd     0.991570000000     0.545510000000     0.070910000000     0.504477   
Cd4      Cd     0.193350000000     0.623060000000     0.331230000000     0.503775   
Cd5      Cd     0.654410000000     0.144010000000     0.082330000000     0.50574    
Cd6      Cd     0.593530000000     0.962210000000     0.326650000000     0.505672   
Cd7      Cd     0.621670000000     0.494410000000     0.577740000000     0.505996   
Cd8      Cd     0.553510000000     0.628000000000     0.821900000000     0.506396   
Cd9      Cd     0.991570000000     0.545510000000     0.570910000000     0.504477   
Cd10     Cd     0.193350000000     0.623050000000     0.831230000000     0.503799   
Cd11     Cd     0.654410000000     0.144010000000     0.582330000000     0.505763   
Cd12     Cd     0.593530000000     0.962210000000     0.826650000000     0.505654   
H1       H      0.668110000000     0.106080000000     0.236880000000     0.0467921  
H2       H      0.587560000000     0.013680000000     0.154960000000     0.0323302  
H3       H      0.562080000000     0.070310000000     0.265460000000     0.0312439  
H4       H      0.548740000000     0.045670000000     0.224950000000     0.0462658  
H5       H      0.556000000000     0.027310000000     0.186960000000     0.0464996  
H6       H      0.678270000000     0.083870000000     0.200520000000     0.046951   
H7       H      0.658590000000     0.086830000000     0.282450000000     0.0425724  
H8       H      0.568480000000     0.041710000000     0.140900000000     0.0436566  
H9       H      0.558820000000     0.006950000000     0.231390000000     0.0571299  
H10      H      0.666710000000     0.118970000000     0.187810000000     0.0581615  
H11      H      0.536640000000     0.018480000000     0.269950000000     0.0429862  
H12      H      0.657720000000     0.044230000000     0.164120000000     0.0324884  
H13      H      0.654780000000     0.055980000000     0.242740000000     0.0592142  
H14      H      0.577070000000     0.078000000000     0.178940000000     0.0573498  
H15      H      0.690220000000     0.093660000000     0.154810000000     0.0440604  
H16      H      0.631680000000     0.108700000000     0.270700000000     0.0309453  
H17      H      0.553680000000     0.028350000000     0.976710000000     0.0461886  
H18      H      0.669200000000     0.073210000000     0.407390000000     0.0330892  
H19      H      0.620910000000     0.007180000000     0.020930000000     0.0318551  
H20      H      0.657120000000     0.025240000000     0.984040000000     0.0464967  
H21      H      0.672870000000     0.044500000000     0.445140000000     0.046715   
H22      H      0.566580000000     0.046200000000     0.437460000000     0.0463702  
H23      H      0.561090000000     0.054930000000     0.020690000000     0.04357    
H24      H      0.671230000000     0.030130000000     0.399800000000     0.0447663  
H25      H      0.671490000000     0.076130000000     0.986730000000     0.0573035  
H26      H      0.557570000000     0.997590000000     0.431660000000     0.0565425  
H27      H      0.665680000000     0.050380000000     0.028280000000     0.043553   
H28      H      0.606510000000     0.073300000000     0.402410000000     0.0328793  
H29      H      0.590740000000     0.078620000000     0.980680000000     0.0567704  
H30      H      0.634560000000     0.996510000000     0.436820000000     0.0573649  
H31      H      0.564040000000     0.029890000000     0.392080000000     0.0436374  
H32      H      0.560680000000     0.009720000000     0.016900000000     0.0319749  
H33      H      0.359800000000     0.796030000000     0.369600000000     0.046128   
H34      H      0.472730000000     0.799080000000     0.309500000000     0.0320113  
H35      H      0.304760000000     0.788000000000     0.305640000000     0.0322898  
H36      H      0.360720000000     0.790850000000     0.290000000000     0.0463144  
H37      H      0.418360000000     0.796710000000     0.291020000000     0.0462536  
H38      H      0.417980000000     0.802970000000     0.371040000000     0.0457584  
H39      H      0.288740000000     0.746780000000     0.370160000000     0.0435468  
H40      H      0.489440000000     0.841980000000     0.290530000000     0.0434494  
H41      H      0.348080000000     0.742820000000     0.300920000000     0.0559974  
H42      H      0.431510000000     0.850740000000     0.359250000000     0.0565803  
H43      H      0.289780000000     0.742820000000     0.289570000000     0.0428491  
H44      H      0.473450000000     0.803990000000     0.356170000000     0.0320125  
H45      H      0.347790000000     0.746920000000     0.361920000000     0.0554421  
H46      H      0.432400000000     0.846190000000     0.299270000000     0.05756    
H47      H      0.489310000000     0.850260000000     0.371020000000     0.0430646  
H48      H      0.303610000000     0.790190000000     0.352010000000     0.0324799  
H49      H      0.835510000000     0.294480000000     0.038590000000     0.0461184  
H50      H      0.837700000000     0.414800000000     0.089930000000     0.0315703  
H51      H      0.821540000000     0.244880000000     0.103900000000     0.0319381  
H52      H      0.830450000000     0.305350000000     0.116760000000     0.0461884  
H53      H      0.838300000000     0.364170000000     0.112880000000     0.0461315  
H54      H      0.847900000000     0.354250000000     0.032800000000     0.0460994  
H55      H      0.778760000000     0.224880000000     0.039930000000     0.0434627  
H56      H      0.879700000000     0.435430000000     0.109760000000     0.0427386  
H57      H      0.783650000000     0.295500000000     0.105760000000     0.0566445  
H58      H      0.893960000000     0.370550000000     0.047580000000     0.0565013  
H59      H      0.778400000000     0.235460000000     0.120160000000     0.0434819  
H60      H      0.845420000000     0.410430000000     0.042960000000     0.0316246  
H61      H      0.788410000000     0.288920000000     0.043590000000     0.0558741  
H62      H      0.887370000000     0.378770000000     0.104650000000     0.0567554  
H63      H      0.892450000000     0.425970000000     0.030260000000     0.0433475  
H64      H      0.821020000000     0.236560000000     0.058110000000     0.0321643  
H65      H      0.089190000000     0.521280000000     0.177860000000     0.0464846  
H66      H      0.146980000000     0.648740000000     0.236550000000     0.0351231  
H67      H      0.023800000000     0.576300000000     0.173420000000     0.0352453  
H68      H      0.087380000000     0.630620000000     0.187520000000     0.047238   
H69      H      0.077410000000     0.614610000000     0.225160000000     0.047143   
H70      H      0.131050000000     0.543940000000     0.207200000000     0.0465099  
H71      H      0.055420000000     0.511690000000     0.137120000000     0.0440942  
H72      H      0.116520000000     0.636160000000     0.263760000000     0.0442863  
H73      H      0.110280000000     0.624190000000     0.161220000000     0.0569315  
H74      H      0.097220000000     0.529140000000     0.232780000000     0.055048   
H75      H      0.046230000000     0.613750000000     0.150060000000     0.0453646  
H76      H      0.178070000000     0.601430000000     0.227460000000     0.0354669  
H77      H      0.115660000000     0.560540000000     0.156110000000     0.0544753  
H78      H      0.068450000000     0.574740000000     0.244300000000     0.0567521  
H79      H      0.163190000000     0.561290000000     0.248640000000     0.0454266  
H80      H      0.028020000000     0.509560000000     0.164300000000     0.0355313  
H81      H      0.063370000000     0.521790000000     0.927800000000     0.0465974  
H82      H      0.134080000000     0.621260000000     0.007580000000     0.0320111  
H83      H      0.064620000000     0.612400000000     0.394720000000     0.032067   
H84      H      0.094040000000     0.640600000000     0.433150000000     0.0468601  
H85      H      0.116880000000     0.643480000000     0.471680000000     0.0468947  
H86      H      0.085240000000     0.524100000000     0.966450000000     0.0465872  
H87      H      0.082570000000     0.530690000000     0.382140000000     0.0430006  
H88      H      0.099780000000     0.635210000000     0.017470000000     0.0434209  
H89      H      0.138150000000     0.640640000000     0.426080000000     0.0583905  
H90      H      0.041670000000     0.524930000000     0.973790000000     0.0580963  
H91      H      0.112670000000     0.650630000000     0.387530000000     0.0439285  
H92      H      0.115370000000     0.551920000000     0.004710000000     0.0318816  
H93      H      0.114650000000     0.549350000000     0.422180000000     0.0575388  
H94      H      0.065790000000     0.615740000000     0.977950000000     0.0581291  
H95      H      0.067100000000     0.514510000000     0.012180000000     0.043628   
H96      H      0.047300000000     0.543670000000     0.391410000000     0.0319162  
H97      H      0.721510000000     0.889390000000     0.333890000000     0.0460127  
H98      H      0.600590000000     0.780540000000     0.288910000000     0.0356444  
H99      H      0.714760000000     0.942170000000     0.274260000000     0.0308237  
H100     H      0.685150000000     0.877790000000     0.260960000000     0.0458108  
H101     H      0.656910000000     0.814400000000     0.261080000000     0.0459715  
H102     H      0.698310000000     0.827520000000     0.339370000000     0.0463869  
H103     H      0.702890000000     0.941710000000     0.343030000000     0.0438045  
H104     H      0.607750000000     0.746400000000     0.270900000000     0.0440116  
H105     H      0.640080000000     0.864030000000     0.276650000000     0.0569022  
H106     H      0.700930000000     0.794960000000     0.317750000000     0.0559553  
H107     H      0.666580000000     0.930710000000     0.266230000000     0.0425071  
H108     H      0.626960000000     0.789810000000     0.338940000000     0.0362457  
H109     H      0.671140000000     0.873220000000     0.339320000000     0.0570571  
H110     H      0.678110000000     0.787940000000     0.273470000000     0.0551266  
H111     H      0.647340000000     0.760050000000     0.347420000000     0.0457035  
H112     H      0.735440000000     0.949040000000     0.317730000000     0.0311014  
H113     H      0.355730000000     0.565320000000     0.299870000000     0.0465677  
H114     H      0.261590000000     0.536310000000     0.382550000000     0.0306852  
H115     H      0.429980000000     0.660610000000     0.341900000000     0.0321557  
H116     H      0.386920000000     0.620720000000     0.373780000000     0.0457728  
H117     H      0.327180000000     0.580570000000     0.385040000000     0.0457332  
H118     H      0.297680000000     0.527120000000     0.315430000000     0.046297   
H119     H      0.424720000000     0.591880000000     0.290760000000     0.0442926  
H120     H      0.264180000000     0.582350000000     0.387590000000     0.0420924  
H121     H      0.398410000000     0.582700000000     0.369770000000     0.0565007  
H122     H      0.299320000000     0.572600000000     0.308670000000     0.0570173  
H123     H      0.455320000000     0.646580000000     0.363540000000     0.0432341  
H124     H      0.244490000000     0.504580000000     0.341910000000     0.0312618  
H125     H      0.377470000000     0.545500000000     0.320180000000     0.0568918  
H126     H      0.324380000000     0.617360000000     0.366610000000     0.0559268  
H127     H      0.233260000000     0.525960000000     0.315820000000     0.0438041  
H128     H      0.411770000000     0.628020000000     0.298380000000     0.033036   
H129     H      0.801850000000     0.537310000000     0.028320000000     0.0462863  
H130     H      0.932820000000     0.659860000000     0.070940000000     0.0310037  
H131     H      0.771590000000     0.510360000000     0.102500000000     0.0327557  
H132     H      0.819530000000     0.577230000000     0.106420000000     0.0466153  
H133     H      0.876520000000     0.625320000000     0.094170000000     0.0463201  
H134     H      0.859560000000     0.588480000000     0.020710000000     0.0460753  
H135     H      0.732260000000     0.497830000000     0.036570000000     0.0431683  
H136     H      0.945470000000     0.635620000000     0.094420000000     0.0435235  
H137     H      0.793000000000     0.593820000000     0.087970000000     0.0574219  
H138     H      0.867640000000     0.551650000000     0.034780000000     0.0575259  
H139     H      0.749440000000     0.537490000000     0.113310000000     0.0440737  
H140     H      0.922440000000     0.638750000000     0.027920000000     0.0305737  
H141     H      0.781020000000     0.566990000000     0.035830000000     0.0572174  
H142     H      0.881510000000     0.582660000000     0.097300000000     0.0577491  
H143     H      0.928040000000     0.598660000000     0.017700000000     0.0420538  
H144     H      0.761570000000     0.487000000000     0.056880000000     0.0322163  
H145     H      0.544700000000     0.296820000000     0.050750000000     0.0463207  
H146     H      0.590900000000     0.208140000000     0.122580000000     0.0429757  
H147     H      0.537130000000     0.333190000000     0.119860000000     0.0318868  
H148     H      0.588060000000     0.318820000000     0.127260000000     0.0460045  
H149     H      0.619100000000     0.277990000000     0.114760000000     0.0543965  
H150     H      0.583370000000     0.272450000000     0.044350000000     0.0468797  
H151     H      0.541250000000     0.358200000000     0.051800000000     0.043885   
H152     H      0.550260000000     0.196610000000     0.102790000000     0.0356055  
H153     H      0.620410000000     0.356020000000     0.106300000000     0.0579809  
H154     H      0.546360000000     0.228610000000     0.058970000000     0.0534909  
H155     H      0.580570000000     0.377110000000     0.128460000000     0.0430742  
H156     H      0.634730000000     0.262550000000     0.058630000000     0.0382543  
H157     H      0.591340000000     0.340600000000     0.052400000000     0.057102   
H158     H      0.569250000000     0.256610000000     0.124650000000     0.0465063  
H159     H      0.598970000000     0.219590000000     0.043040000000     0.0416657  
H160     H      0.513870000000     0.322730000000     0.075460000000     0.0321942  
H161     H      0.648940000000     0.586910000000     0.960710000000     0.0467953  
H162     H      0.561400000000     0.519910000000     0.390720000000     0.0335719  
H163     H      0.546330000000     0.542600000000     0.005560000000     0.0337074  
H164     H      0.523980000000     0.505090000000     0.468290000000     0.0465483  
H165     H      0.524800000000     0.505890000000     0.428010000000     0.0464926  
H166     H      0.632460000000     0.618000000000     0.937830000000     0.0470669  
H167     H      0.655480000000     0.581630000000     0.005950000000     0.0437297  
H168     H      0.520450000000     0.525650000000     0.384430000000     0.043975   
H169     H      0.556470000000     0.486150000000     0.970890000000     0.0559927  
H170     H      0.589650000000     0.618010000000     0.430180000000     0.0586375  
H171     H      0.535370000000     0.493850000000     0.012490000000     0.0450431  
H172     H      0.629090000000     0.584050000000     0.397610000000     0.0332622  
H173     H      0.632540000000     0.538140000000     0.968900000000     0.0581596  
H174     H      0.521790000000     0.549740000000     0.426810000000     0.0554894  
H175     H      0.631110000000     0.629980000000     0.393000000000     0.0448427  
H176     H      0.620340000000     0.596360000000     0.000030000000     0.0332167  
H177     H      0.527990000000     0.510380000000     0.216270000000     0.0466228  
H178     H      0.615280000000     0.613520000000     0.141900000000     0.0316787  
H179     H      0.625020000000     0.560540000000     0.256680000000     0.0319634  
H180     H      0.646700000000     0.597730000000     0.219870000000     0.0463889  
H181     H      0.643460000000     0.614770000000     0.180700000000     0.0463124  
H182     H      0.525440000000     0.527020000000     0.177040000000     0.0466616  
H183     H      0.519300000000     0.522460000000     0.261430000000     0.0439745  
H184     H      0.652760000000     0.602230000000     0.135720000000     0.0434436  
H185     H      0.619340000000     0.622020000000     0.225010000000     0.0571771  
H186     H      0.552520000000     0.502250000000     0.172740000000     0.0576124  
H187     H      0.639290000000     0.609810000000     0.265120000000     0.0430751  
H188     H      0.546830000000     0.562360000000     0.139690000000     0.0318124  
H189     H      0.529390000000     0.555900000000     0.222050000000     0.0576041  
H190     H      0.643130000000     0.569650000000     0.175400000000     0.0576089  
H191     H      0.533490000000     0.513060000000     0.132070000000     0.0435182  
H192     H      0.555960000000     0.510190000000     0.254810000000     0.0320572  
H193     H      0.668110000000     0.106080000000     0.736880000000     0.0468205  
H194     H      0.587560000000     0.013680000000     0.654960000000     0.0323371  
H195     H      0.562080000000     0.070310000000     0.765460000000     0.031243   
H196     H      0.548740000000     0.045670000000     0.724950000000     0.0462671  
H197     H      0.556010000000     0.027310000000     0.686960000000     0.0465193  
H198     H      0.678270000000     0.083870000000     0.700520000000     0.046956   
H199     H      0.658590000000     0.086830000000     0.782450000000     0.0425712  
H200     H      0.568480000000     0.041710000000     0.640900000000     0.043663   
H201     H      0.558820000000     0.006950000000     0.731390000000     0.0571323  
H202     H      0.666710000000     0.118970000000     0.687810000000     0.0581659  
H203     H      0.536640000000     0.018480000000     0.769950000000     0.0429908  
H204     H      0.657720000000     0.044230000000     0.664120000000     0.0324743  
H205     H      0.654780000000     0.055980000000     0.742740000000     0.0592525  
H206     H      0.577070000000     0.078000000000     0.678950000000     0.0573538  
H207     H      0.690220000000     0.093660000000     0.654810000000     0.0440431  
H208     H      0.631680000000     0.108700000000     0.770700000000     0.0309415  
H209     H      0.553680000000     0.028350000000     0.476710000000     0.0461874  
H210     H      0.669200000000     0.073210000000     0.907390000000     0.0330839  
H211     H      0.620910000000     0.007180000000     0.520930000000     0.0318579  
H212     H      0.657120000000     0.025240000000     0.484040000000     0.0464962  
H213     H      0.672870000000     0.044500000000     0.945140000000     0.0466823  
H214     H      0.566580000000     0.046200000000     0.937460000000     0.0463657  
H215     H      0.561090000000     0.054930000000     0.520690000000     0.0435638  
H216     H      0.671230000000     0.030130000000     0.899800000000     0.0447618  
H217     H      0.671490000000     0.076130000000     0.486730000000     0.0573006  
H218     H      0.557570000000     0.997590000000     0.931660000000     0.0565378  
H219     H      0.665680000000     0.050380000000     0.528280000000     0.0435539  
H220     H      0.606510000000     0.073300000000     0.902410000000     0.0328802  
H221     H      0.590740000000     0.078620000000     0.480680000000     0.0567671  
H222     H      0.634560000000     0.996510000000     0.936820000000     0.0573451  
H223     H      0.564040000000     0.029890000000     0.892080000000     0.0436389  
H224     H      0.560680000000     0.009720000000     0.516900000000     0.031975   
H225     H      0.359800000000     0.796030000000     0.869600000000     0.0461259  
H226     H      0.472730000000     0.799080000000     0.809500000000     0.0319849  
H227     H      0.304760000000     0.788000000000     0.805640000000     0.0322883  
H228     H      0.360720000000     0.790850000000     0.790000000000     0.0463126  
H229     H      0.418360000000     0.796710000000     0.791030000000     0.0463009  
H230     H      0.417980000000     0.802970000000     0.871040000000     0.0457669  
H231     H      0.288740000000     0.746780000000     0.870160000000     0.0435424  
H232     H      0.489440000000     0.841970000000     0.790530000000     0.0434237  
H233     H      0.348080000000     0.742820000000     0.800920000000     0.0559949  
H234     H      0.431510000000     0.850730000000     0.859250000000     0.0566127  
H235     H      0.289780000000     0.742820000000     0.789570000000     0.0428455  
H236     H      0.473450000000     0.804000000000     0.856170000000     0.0320359  
H237     H      0.347790000000     0.746920000000     0.861920000000     0.0554409  
H238     H      0.432400000000     0.846190000000     0.799270000000     0.0575868  
H239     H      0.489310000000     0.850260000000     0.871020000000     0.0430761  
H240     H      0.303610000000     0.790190000000     0.852010000000     0.0324778  
H241     H      0.835510000000     0.294480000000     0.538590000000     0.0461282  
H242     H      0.837700000000     0.414800000000     0.589930000000     0.0315548  
H243     H      0.821540000000     0.244880000000     0.603900000000     0.0319301  
H244     H      0.830450000000     0.305340000000     0.616760000000     0.0462043  
H245     H      0.838300000000     0.364160000000     0.612880000000     0.0461349  
H246     H      0.847900000000     0.354240000000     0.532800000000     0.0460857  
H247     H      0.778760000000     0.224880000000     0.539930000000     0.0434645  
H248     H      0.879700000000     0.435430000000     0.609760000000     0.0427231  
H249     H      0.783650000000     0.295490000000     0.605760000000     0.0566776  
H250     H      0.893960000000     0.370550000000     0.547580000000     0.0564961  
H251     H      0.778400000000     0.235460000000     0.620160000000     0.0434725  
H252     H      0.845420000000     0.410430000000     0.542960000000     0.0316233  
H253     H      0.788410000000     0.288920000000     0.543590000000     0.0558489  
H254     H      0.887370000000     0.378770000000     0.604650000000     0.0567598  
H255     H      0.892450000000     0.425960000000     0.530260000000     0.0433419  
H256     H      0.821020000000     0.236560000000     0.558110000000     0.0321629  
H257     H      0.089190000000     0.521280000000     0.677860000000     0.0464927  
H258     H      0.146980000000     0.648740000000     0.736550000000     0.0351246  
H259     H      0.023800000000     0.576300000000     0.673420000000     0.0352433  
H260     H      0.087380000000     0.630620000000     0.687520000000     0.0472433  
H261     H      0.077410000000     0.614610000000     0.725160000000     0.0471391  
H262     H      0.131050000000     0.543940000000     0.707200000000     0.0465007  
H263     H      0.055420000000     0.511690000000     0.637120000000     0.0440921  
H264     H      0.116520000000     0.636160000000     0.763760000000     0.044287   
H265     H      0.110280000000     0.624190000000     0.661220000000     0.0569341  
H266     H      0.097220000000     0.529140000000     0.732790000000     0.0550255  
H267     H      0.046230000000     0.613750000000     0.650060000000     0.0453625  
H268     H      0.178070000000     0.601430000000     0.727460000000     0.0354704  
H269     H      0.115660000000     0.560540000000     0.656110000000     0.0544803  
H270     H      0.068450000000     0.574740000000     0.744300000000     0.0567474  
H271     H      0.163190000000     0.561290000000     0.748640000000     0.0454292  
H272     H      0.028020000000     0.509560000000     0.664300000000     0.0355291  
H273     H      0.063370000000     0.521790000000     0.427800000000     0.0466002  
H274     H      0.134080000000     0.621260000000     0.507580000000     0.0320085  
H275     H      0.064630000000     0.612400000000     0.894720000000     0.032079   
H276     H      0.094040000000     0.640600000000     0.933150000000     0.0468534  
H277     H      0.116870000000     0.643480000000     0.971680000000     0.046907   
H278     H      0.085240000000     0.524100000000     0.466450000000     0.0466105  
H279     H      0.082570000000     0.530690000000     0.882150000000     0.0430014  
H280     H      0.099780000000     0.635210000000     0.517470000000     0.0434219  
H281     H      0.138150000000     0.640640000000     0.926080000000     0.0583897  
H282     H      0.041660000000     0.524930000000     0.473790000000     0.0580819  
H283     H      0.112670000000     0.650630000000     0.887530000000     0.0439399  
H284     H      0.115370000000     0.551920000000     0.504710000000     0.0318803  
H285     H      0.114650000000     0.549350000000     0.922180000000     0.0575722  
H286     H      0.065790000000     0.615740000000     0.477950000000     0.0581268  
H287     H      0.067100000000     0.514510000000     0.512180000000     0.0436288  
H288     H      0.047300000000     0.543670000000     0.891400000000     0.0319169  
H289     H      0.721510000000     0.889390000000     0.833890000000     0.0460161  
H290     H      0.600590000000     0.780540000000     0.788900000000     0.0356388  
H291     H      0.714760000000     0.942170000000     0.774260000000     0.0308136  
H292     H      0.685150000000     0.877790000000     0.760960000000     0.045817   
H293     H      0.656910000000     0.814400000000     0.761070000000     0.0459231  
H294     H      0.698310000000     0.827520000000     0.839370000000     0.0463426  
H295     H      0.702890000000     0.941710000000     0.843030000000     0.0437961  
H296     H      0.607750000000     0.746400000000     0.770900000000     0.0440109  
H297     H      0.640080000000     0.864030000000     0.776650000000     0.0569112  
H298     H      0.700940000000     0.794960000000     0.817750000000     0.0558719  
H299     H      0.666580000000     0.930700000000     0.766230000000     0.0424991  
H300     H      0.626960000000     0.789810000000     0.838940000000     0.0362541  
H301     H      0.671140000000     0.873220000000     0.839320000000     0.0570613  
H302     H      0.678110000000     0.787940000000     0.773470000000     0.0551086  
H303     H      0.647340000000     0.760050000000     0.847420000000     0.0457103  
H304     H      0.735440000000     0.949040000000     0.817730000000     0.0310935  
H305     H      0.355730000000     0.565320000000     0.799870000000     0.0465643  
H306     H      0.261590000000     0.536310000000     0.882550000000     0.0307384  
H307     H      0.429970000000     0.660610000000     0.841900000000     0.032144   
H308     H      0.386920000000     0.620720000000     0.873780000000     0.0457594  
H309     H      0.327180000000     0.580560000000     0.885040000000     0.0457037  
H310     H      0.297680000000     0.527120000000     0.815430000000     0.0462942  
H311     H      0.424720000000     0.591880000000     0.790770000000     0.0443118  
H312     H      0.264180000000     0.582340000000     0.887590000000     0.0421366  
H313     H      0.398410000000     0.582700000000     0.869770000000     0.056514   
H314     H      0.299320000000     0.572600000000     0.808670000000     0.0570151  
H315     H      0.455320000000     0.646580000000     0.863540000000     0.0432284  
H316     H      0.244490000000     0.504580000000     0.841910000000     0.0312657  
H317     H      0.377470000000     0.545500000000     0.820180000000     0.0568879  
H318     H      0.324380000000     0.617360000000     0.866610000000     0.055877   
H319     H      0.233260000000     0.525960000000     0.815820000000     0.0438078  
H320     H      0.411770000000     0.628020000000     0.798380000000     0.033048   
H321     H      0.801840000000     0.537310000000     0.528320000000     0.0462918  
H322     H      0.932820000000     0.659860000000     0.570940000000     0.0310345  
H323     H      0.771580000000     0.510360000000     0.602500000000     0.0327706  
H324     H      0.819530000000     0.577230000000     0.606420000000     0.0466231  
H325     H      0.876530000000     0.625320000000     0.594170000000     0.046334   
H326     H      0.859570000000     0.588480000000     0.520700000000     0.0460565  
H327     H      0.732260000000     0.497830000000     0.536570000000     0.043167   
H328     H      0.945470000000     0.635610000000     0.594420000000     0.0435619  
H329     H      0.793000000000     0.593820000000     0.587970000000     0.0574012  
H330     H      0.867640000000     0.551650000000     0.534780000000     0.0575203  
H331     H      0.749440000000     0.537490000000     0.613310000000     0.044075   
H332     H      0.922430000000     0.638750000000     0.527920000000     0.0305624  
H333     H      0.781020000000     0.566990000000     0.535820000000     0.057193   
H334     H      0.881510000000     0.582660000000     0.597300000000     0.0577472  
H335     H      0.928050000000     0.598660000000     0.517700000000     0.042053   
H336     H      0.761570000000     0.487000000000     0.556880000000     0.0322167  
H337     H      0.544700000000     0.296820000000     0.550750000000     0.0463113  
H338     H      0.590900000000     0.208140000000     0.622580000000     0.0429765  
H339     H      0.537130000000     0.333190000000     0.619860000000     0.0318402  
H340     H      0.588060000000     0.318820000000     0.627260000000     0.0459965  
H341     H      0.619100000000     0.277990000000     0.614760000000     0.0544047  
H342     H      0.583380000000     0.272450000000     0.544350000000     0.0468328  
H343     H      0.541250000000     0.358200000000     0.551800000000     0.0439096  
H344     H      0.550260000000     0.196610000000     0.602790000000     0.035604   
H345     H      0.620410000000     0.356020000000     0.606300000000     0.0579899  
H346     H      0.546360000000     0.228610000000     0.558970000000     0.0534677  
H347     H      0.580570000000     0.377110000000     0.628460000000     0.0430306  
H348     H      0.634730000000     0.262550000000     0.558630000000     0.038257   
H349     H      0.591340000000     0.340590000000     0.552400000000     0.0570931  
H350     H      0.569260000000     0.256610000000     0.624650000000     0.0465317  
H351     H      0.598970000000     0.219590000000     0.543040000000     0.0416661  
H352     H      0.513870000000     0.322730000000     0.575460000000     0.0322211  
H353     H      0.648940000000     0.586910000000     0.460720000000     0.0468255  
H354     H      0.561400000000     0.519920000000     0.890720000000     0.0335877  
H355     H      0.546330000000     0.542600000000     0.505560000000     0.0337166  
H356     H      0.523990000000     0.505090000000     0.968290000000     0.0465858  
H357     H      0.524800000000     0.505890000000     0.928010000000     0.0464822  
H358     H      0.632460000000     0.618000000000     0.437820000000     0.0471322  
H359     H      0.655480000000     0.581630000000     0.505950000000     0.0436983  
H360     H      0.520450000000     0.525650000000     0.884430000000     0.0439883  
H361     H      0.556470000000     0.486150000000     0.470890000000     0.0559768  
H362     H      0.589650000000     0.618010000000     0.930180000000     0.058605   
H363     H      0.535370000000     0.493850000000     0.512490000000     0.0450489  
H364     H      0.629090000000     0.584050000000     0.897610000000     0.0332652  
H365     H      0.632540000000     0.538140000000     0.468900000000     0.0581701  
H366     H      0.521790000000     0.549740000000     0.926810000000     0.0554812  
H367     H      0.631110000000     0.629970000000     0.893000000000     0.0448561  
H368     H      0.620340000000     0.596360000000     0.500030000000     0.033193   
H369     H      0.527980000000     0.510380000000     0.716270000000     0.0466167  
H370     H      0.615270000000     0.613510000000     0.641900000000     0.0316817  
H371     H      0.625020000000     0.560540000000     0.756680000000     0.0319644  
H372     H      0.646700000000     0.597730000000     0.719870000000     0.0463935  
H373     H      0.643460000000     0.614770000000     0.680710000000     0.0463109  
H374     H      0.525440000000     0.527020000000     0.677040000000     0.0466504  
H375     H      0.519300000000     0.522460000000     0.761430000000     0.0439781  
H376     H      0.652760000000     0.602240000000     0.635720000000     0.0434373  
H377     H      0.619340000000     0.622020000000     0.725020000000     0.057187   
H378     H      0.552520000000     0.502250000000     0.672740000000     0.0576046  
H379     H      0.639290000000     0.609810000000     0.765120000000     0.0430754  
H380     H      0.546830000000     0.562360000000     0.639690000000     0.0318373  
H381     H      0.529390000000     0.555900000000     0.722050000000     0.0575988  
H382     H      0.643130000000     0.569650000000     0.675400000000     0.0576407  
H383     H      0.533490000000     0.513060000000     0.632070000000     0.0435435  
H384     H      0.555960000000     0.510190000000     0.754810000000     0.0320622  
N1       N      0.630070000000     0.071370000000     0.146330000000    -0.161247   
N2       N      0.597810000000     0.048020000000     0.276780000000    -0.162122   
N3       N      0.616280000000     0.026880000000     0.394260000000    -0.160652   
N4       N      0.615690000000     0.057230000000     0.025330000000    -0.161497   
N5       N      0.491760000000     0.850570000000     0.330610000000    -0.161411   
N6       N      0.287300000000     0.740070000000     0.329970000000    -0.161594   
N7       N      0.889760000000     0.433740000000     0.070120000000    -0.161672   
N8       N      0.773800000000     0.228860000000     0.079930000000    -0.160853   
N9       N      0.144400000000     0.602270000000     0.257720000000    -0.159563   
N10      N      0.045650000000     0.560010000000     0.142330000000    -0.159717   
N11      N      0.079090000000     0.573600000000     0.015960000000    -0.161226   
N12      N      0.102180000000     0.592050000000     0.383820000000    -0.161511   
N13      N      0.621770000000     0.750200000000     0.310390000000    -0.160073   
N14      N      0.679520000000     0.934360000000     0.305710000000    -0.161146   
N15      N      0.248930000000     0.558750000000     0.350250000000    -0.161343   
N16      N      0.443300000000     0.619370000000     0.327010000000    -0.161267   
N17      N      0.936690000000     0.612000000000     0.057110000000    -0.161393   
N18      N      0.737360000000     0.517210000000     0.074980000000    -0.1611     
N19      N      0.602130000000     0.214870000000     0.082810000000    -0.161438   
N20      N      0.563940000000     0.371860000000     0.089500000000    -0.16143    
N21      N      0.575790000000     0.578550000000     0.386250000000    -0.160987   
N22      N      0.595840000000     0.537630000000     0.011760000000    -0.160878   
N23      N      0.594430000000     0.554410000000     0.133020000000    -0.161514   
N24      N      0.578130000000     0.569270000000     0.264310000000    -0.161367   
N25      N      0.630080000000     0.071370000000     0.646330000000    -0.16127    
N26      N      0.597810000000     0.048020000000     0.776780000000    -0.162104   
N27      N      0.616280000000     0.026880000000     0.894260000000    -0.160653   
N28      N      0.615690000000     0.057230000000     0.525330000000    -0.161488   
N29      N      0.491760000000     0.850570000000     0.830600000000    -0.161407   
N30      N      0.287300000000     0.740070000000     0.829970000000    -0.161634   
N31      N      0.889760000000     0.433740000000     0.570120000000    -0.161701   
N32      N      0.773790000000     0.228860000000     0.579930000000    -0.160885   
N33      N      0.144400000000     0.602270000000     0.757720000000    -0.159561   
N34      N      0.045650000000     0.560010000000     0.642330000000    -0.15972    
N35      N      0.079090000000     0.573600000000     0.515960000000    -0.16123    
N36      N      0.102180000000     0.592050000000     0.883820000000    -0.161462   
N37      N      0.621770000000     0.750200000000     0.810390000000    -0.160079   
N38      N      0.679520000000     0.934350000000     0.805710000000    -0.161123   
N39      N      0.248930000000     0.558750000000     0.850250000000    -0.161283   
N40      N      0.443300000000     0.619370000000     0.827010000000    -0.161265   
N41      N      0.936690000000     0.611990000000     0.557110000000    -0.161426   
N42      N      0.737360000000     0.517210000000     0.574980000000    -0.161079   
N43      N      0.602130000000     0.214870000000     0.582810000000    -0.16144    
N44      N      0.563940000000     0.371860000000     0.589500000000    -0.161442   
N45      N      0.575790000000     0.578550000000     0.886250000000    -0.160951   
N46      N      0.595840000000     0.537640000000     0.511760000000    -0.160873   
N47      N      0.594430000000     0.554410000000     0.633020000000    -0.161552   
N48      N      0.578130000000     0.569270000000     0.764310000000    -0.161344   
O1       O      0.677670000000     0.496370000000     0.057160000000    -0.25379    
O2       O      0.600270000000     0.435190000000     0.103240000000    -0.256245   
O3       O      0.638020000000     0.538750000000     0.041680000000    -0.254047   
O4       O      0.637340000000     0.548070000000     0.107460000000    -0.251584   
O5       O      0.577820000000     0.502800000000     0.106260000000    -0.254699   
O6       O      0.578360000000     0.494350000000     0.044680000000    -0.250739   
O7       O      0.686320000000     0.516530000000     0.095440000000    -0.249786   
O8       O      0.581700000000     0.425770000000     0.064680000000    -0.252154   
O9       O      0.592310000000     0.628170000000     0.357830000000    -0.249643   
O10      O      0.536110000000     0.575880000000     0.290620000000    -0.250414   
O11      O      0.599310000000     0.695110000000     0.334780000000    -0.248056   
O12      O      0.502820000000     0.635260000000     0.343200000000    -0.256652   
O13      O      0.488500000000     0.609930000000     0.306280000000    -0.250743   
O14      O      0.579460000000     0.687970000000     0.296520000000    -0.254638   
O15      O      0.537010000000     0.576400000000     0.353510000000    -0.255564   
O16      O      0.596240000000     0.619420000000     0.292560000000    -0.255829   
O17      O      0.020280000000     0.580150000000     0.110630000000    -0.246952   
O18      O      0.046510000000     0.590580000000     0.044290000000    -0.255962   
O19      O      0.969100000000     0.591110000000     0.082750000000    -0.248204   
O20      O      0.942730000000     0.484060000000     0.050770000000    -0.251732   
O21      O      0.935490000000     0.489130000000     0.090290000000    -0.25713    
O22      O      0.959310000000     0.571640000000     0.044340000000    -0.255201   
O23      O      0.022840000000     0.527860000000     0.104570000000    -0.252979   
O24      O      0.029840000000     0.530090000000     0.041460000000    -0.25183    
O25      O      0.243390000000     0.682990000000     0.310540000000    -0.257688   
O26      O      0.213500000000     0.574390000000     0.323490000000    -0.246918   
O27      O      0.154440000000     0.629710000000     0.297280000000    -0.25209    
O28      O      0.152260000000     0.636600000000     0.359320000000    -0.252467   
O29      O      0.137170000000     0.576560000000     0.356550000000    -0.257421   
O30      O      0.178070000000     0.592600000000     0.289380000000    -0.245223   
O31      O      0.241390000000     0.685550000000     0.350740000000    -0.251332   
O32      O      0.230620000000     0.604040000000     0.359020000000    -0.254847   
O33      O      0.617120000000     0.171630000000     0.101470000000    -0.254065   
O34      O      0.716380000000     0.192250000000     0.100780000000    -0.251131   
O35      O      0.608720000000     0.101010000000     0.049990000000    -0.25457    
O36      O      0.610970000000     0.093810000000     0.112440000000    -0.25196    
O37      O      0.671860000000     0.118940000000     0.119240000000    -0.250136   
O38      O      0.660920000000     0.098490000000     0.053920000000    -0.254373   
O39      O      0.636750000000     0.189990000000     0.063690000000    -0.25514    
O40      O      0.716750000000     0.184610000000     0.060760000000    -0.250947   
O41      O      0.577750000000     0.994700000000     0.360240000000    -0.253036   
O42      O      0.564480000000     0.989980000000     0.298180000000    -0.252715   
O43      O      0.539170000000     0.902550000000     0.308750000000    -0.253813   
O44      O      0.646410000000     0.948770000000     0.335140000000    -0.248632   
O45      O      0.630070000000     0.946110000000     0.296360000000    -0.2539     
O46      O      0.541020000000     0.905720000000     0.349040000000    -0.255771   
O47      O      0.631080000000     0.994280000000     0.364520000000    -0.246907   
O48      O      0.626110000000     0.023200000000     0.302790000000    -0.257273   
O49      O      0.677670000000     0.496370000000     0.557160000000    -0.253773   
O50      O      0.600270000000     0.435190000000     0.603240000000    -0.256264   
O51      O      0.638020000000     0.538750000000     0.541680000000    -0.254045   
O52      O      0.637330000000     0.548070000000     0.607460000000    -0.251641   
O53      O      0.577820000000     0.502800000000     0.606260000000    -0.254651   
O54      O      0.578360000000     0.494360000000     0.544680000000    -0.250785   
O55      O      0.686310000000     0.516530000000     0.595440000000    -0.249726   
O56      O      0.581700000000     0.425770000000     0.564680000000    -0.252179   
O57      O      0.592310000000     0.628160000000     0.857830000000    -0.249795   
O58      O      0.536110000000     0.575880000000     0.790620000000    -0.250504   
O59      O      0.599310000000     0.695110000000     0.834780000000    -0.248079   
O60      O      0.502820000000     0.635260000000     0.843200000000    -0.256648   
O61      O      0.488500000000     0.609930000000     0.806280000000    -0.25074    
O62      O      0.579460000000     0.687980000000     0.796520000000    -0.254685   
O63      O      0.537010000000     0.576400000000     0.853510000000    -0.255683   
O64      O      0.596240000000     0.619420000000     0.792560000000    -0.255818   
O65      O      0.020280000000     0.580150000000     0.610630000000    -0.246953   
O66      O      0.046510000000     0.590580000000     0.544290000000    -0.255882   
O67      O      0.969100000000     0.591110000000     0.582750000000    -0.24823    
O68      O      0.942730000000     0.484060000000     0.550770000000    -0.251682   
O69      O      0.935490000000     0.489130000000     0.590290000000    -0.25711    
O70      O      0.959310000000     0.571640000000     0.544340000000    -0.255229   
O71      O      0.022840000000     0.527860000000     0.604570000000    -0.252977   
O72      O      0.029840000000     0.530090000000     0.541460000000    -0.251889   
O73      O      0.243390000000     0.682990000000     0.810540000000    -0.257721   
O74      O      0.213500000000     0.574390000000     0.823490000000    -0.246896   
O75      O      0.154440000000     0.629710000000     0.797280000000    -0.252082   
O76      O      0.152260000000     0.636600000000     0.859320000000    -0.25251    
O77      O      0.137170000000     0.576560000000     0.856550000000    -0.257502   
O78      O      0.178070000000     0.592600000000     0.789380000000    -0.245234   
O79      O      0.241390000000     0.685550000000     0.850730000000    -0.251464   
O80      O      0.230620000000     0.604050000000     0.859020000000    -0.254754   
O81      O      0.617110000000     0.171630000000     0.601470000000    -0.254087   
O82      O      0.716370000000     0.192250000000     0.600780000000    -0.251099   
O83      O      0.608720000000     0.101010000000     0.550000000000    -0.254452   
O84      O      0.610970000000     0.093810000000     0.612440000000    -0.251982   
O85      O      0.671850000000     0.118940000000     0.619240000000    -0.250228   
O86      O      0.660920000000     0.098490000000     0.553920000000    -0.254421   
O87      O      0.636750000000     0.189990000000     0.563690000000    -0.255162   
O88      O      0.716750000000     0.184610000000     0.560760000000    -0.250945   
O89      O      0.577750000000     0.994700000000     0.860240000000    -0.253032   
O90      O      0.564470000000     0.989980000000     0.798180000000    -0.252642   
O91      O      0.539170000000     0.902550000000     0.808750000000    -0.253789   
O92      O      0.646410000000     0.948770000000     0.835140000000    -0.248641   
O93      O      0.630070000000     0.946100000000     0.796360000000    -0.253938   
O94      O      0.541020000000     0.905730000000     0.849040000000    -0.255736   
O95      O      0.631080000000     0.994280000000     0.864520000000    -0.246907   
O96      O      0.626110000000     0.023200000000     0.802790000000    -0.257261   


