data_structure

_audit_creation_method RASPA-1.0
_audit_creation_date 2023-5-22
_audit_author_name 'Poobodin Mano'

_cell_length_a    54.0824
_cell_length_b    54.3169
_cell_length_c    38.7861
_cell_angle_alpha 90.0024
_cell_angle_beta  90.0027
_cell_angle_gamma 119.998
_cell_volume      98674.8

_symmetry_cell_setting          triclinic
_symmetry_space_group_name_Hall 'P 1'
_symmetry_space_group_name_H-M  'P 1'
_symmetry_Int_Tables_number     1

_symmetry_equiv_pos_as_xyz 'x,y,z'

loop_
_atom_site_label
_atom_site_type_symbol
_atom_site_fract_x
_atom_site_fract_y
_atom_site_fract_z
_atom_site_charge
C1       C      0.362180000000     0.302340000000     0.601840000000     0.345021   
C2       C      0.444280000000     0.300700000000     0.570880000000     0.341479   
C3       C      0.402390000000     0.260860000000     0.677660000000     0.341583   
C4       C      0.358380000000     0.215020000000     0.574880000000     0.345365   
C5       C      0.312910000000     0.134040000000     0.263420000000     0.345605   
C6       C      0.326650000000     0.225440000000     0.240540000000     0.340829   
C7       C      0.358370000000     0.208460000000     0.346530000000     0.343928   
C8       C      0.403530000000     0.208690000000     0.241250000000     0.34246    
C9       C      0.119300000000     0.311180000000     0.551650000000     0.341826   
C10      C      0.198400000000     0.297420000000     0.535480000000     0.345264   
C11      C      0.176670000000     0.351300000000     0.453640000000     0.339809   
C12      C      0.217530000000     0.385240000000     0.563110000000     0.339949   
C13      C      0.286750000000     0.372860000000     0.242640000000     0.341952   
C14      C      0.303690000000     0.465150000000     0.209420000000     0.344608   
C15      C      0.260080000000     0.387350000000     0.132780000000     0.341671   
C16      C      0.213670000000     0.395310000000     0.235480000000     0.342358   
C17      C      0.270670000000     0.498250000000     0.890400000000     0.340655   
C18      C      0.180830000000     0.418780000000     0.860440000000     0.345765   
C19      C      0.264010000000     0.450070000000     0.787470000000     0.342057   
C20      C      0.252200000000     0.404290000000     0.896510000000     0.341723   
C21      C      0.515120000000     0.261330000000     0.933010000000     0.34485    
C22      C      0.427910000000     0.180000000000     0.906580000000     0.341627   
C23      C      0.435740000000     0.227180000000     0.011520000000     0.341898   
C24      C      0.433510000000     0.268120000000     0.905880000000     0.344945   
C25      C      0.417510000000     0.130090000000     0.904270000000     0.0104756  
C26      C      0.282490000000     0.548570000000     0.893050000000     0.0101916  
C27      C      0.304930000000     0.530760000000     0.934030000000     0.0105354  
C28      C      0.311240000000     0.071030000000     0.878170000000    -0.0987099  
C29      C      0.388650000000     0.107130000000     0.918430000000    -0.0988219  
C30      C      0.335160000000     0.052170000000     0.921980000000    -0.0989426  
C31      C      0.362920000000     0.101300000000     0.895920000000     0.0194501  
C32      C      0.337060000000     0.076720000000     0.900380000000     0.0191526  
C33      C      0.395140000000     0.147100000000     0.862160000000     0.0109849  
C34      C      0.364850000000     0.125670000000     0.873910000000    -0.0991282  
C35      C      0.557520000000     0.273050000000     0.897130000000     0.0108356  
C36      C      0.137650000000     0.407980000000     0.894060000000     0.0110512  
C37      C      0.132730000000     0.386020000000     0.836910000000     0.0111757  
C38      C      0.123570000000     0.379360000000     0.912810000000    -0.0987338  
C39      C      0.571430000000     0.301780000000     0.878590000000    -0.098926   
C40      C      0.117910000000     0.355830000000     0.851660000000    -0.099005   
C41      C      0.087850000000     0.327500000000     0.902460000000     0.0192804  
C42      C      0.107510000000     0.353550000000     0.888990000000     0.0194262  
C43      C      0.563670000000     0.294960000000     0.954600000000     0.0109537  
C44      C      0.577730000000     0.325130000000     0.939900000000    -0.0991009  
C45      C      0.232880000000     0.359920000000     0.930490000000     0.0105381  
C46      C      0.280170000000     0.376600000000     0.081620000000     0.009192   
C47      C      0.231720000000     0.373720000000     0.079540000000     0.00813749 
C48      C      0.284600000000     0.387840000000     0.044570000000    -0.10038    
C49      C      0.228890000000     0.363790000000     0.968780000000    -0.0991642  
C50      C      0.229290000000     0.359060000000     0.044850000000    -0.100319   
C51      C      0.256950000000     0.377980000000     0.989020000000     0.0190369  
C52      C      0.256850000000     0.375060000000     0.024200000000     0.0190791  
C53      C      0.284550000000     0.394800000000     0.932100000000     0.0105449  
C54      C      0.283890000000     0.400680000000     0.970610000000    -0.0995048  
C55      C      0.284830000000     0.435360000000     0.740290000000     0.0097085  
C56      C      0.226930000000     0.426660000000     0.598190000000     0.00747309 
C57      C      0.263870000000     0.411040000000     0.593420000000     0.00994341 
C58      C      0.248460000000     0.447920000000     0.624270000000    -0.100111   
C59      C      0.267420000000     0.420020000000     0.708250000000    -0.0995138  
C60      C      0.266360000000     0.412010000000     0.632760000000    -0.100048   
C61      C      0.263850000000     0.439860000000     0.683260000000     0.0191983  
C62      C      0.259440000000     0.433480000000     0.648730000000     0.0197207  
C63      C      0.276370000000     0.475920000000     0.731770000000     0.00966953 
C64      C      0.258800000000     0.462730000000     0.699060000000    -0.0994418  
C65      C      0.164020000000     0.362720000000     0.254610000000     0.0111652  
C66      C      0.190740000000     0.388110000000     0.408390000000     0.00717092 
C67      C      0.166770000000     0.336090000000     0.392720000000     0.00763485 
C68      C      0.172070000000     0.392440000000     0.382090000000    -0.0996458  
C69      C      0.160270000000     0.353410000000     0.292430000000    -0.0985216  
C70      C      0.147570000000     0.339980000000     0.366980000000    -0.0998177  
C71      C      0.167900000000     0.377100000000     0.318990000000     0.0203057  
C72      C      0.162680000000     0.370350000000     0.353440000000     0.0191638  
C73      C      0.187350000000     0.413620000000     0.269170000000     0.0111468  
C74      C      0.185790000000     0.408320000000     0.308070000000    -0.0985493  
C75      C      0.285440000000     0.093210000000     0.224230000000     0.0109138  
C76      C      0.332920000000     0.507690000000     0.245300000000     0.0113085  
C77      C      0.324250000000     0.513330000000     0.184120000000     0.0110352  
C78      C      0.317170000000     0.022710000000     0.258250000000    -0.0988358  
C79      C      0.300890000000     0.077700000000     0.211700000000    -0.098795   
C80      C      0.308590000000     0.029500000000     0.192800000000    -0.0987876  
C81      C      0.305180000000     0.060070000000     0.239550000000     0.0194531  
C82      C      0.311970000000     0.039660000000     0.230350000000     0.0194392  
C83      C      0.291090000000     0.084810000000     0.285520000000     0.0114113  
C84      C      0.307680000000     0.069560000000     0.277270000000    -0.0991889  
C85      C      0.286190000000     0.233700000000     0.229550000000     0.0103054  
C86      C      0.326150000000     0.364120000000     0.258040000000     0.0106689  
C87      C      0.277310000000     0.331550000000     0.279060000000     0.0104844  
C88      C      0.327670000000     0.340720000000     0.237860000000    -0.0989398  
C89      C      0.285080000000     0.257360000000     0.249780000000    -0.0989006  
C90      C      0.275780000000     0.305770000000     0.260940000000    -0.0988648  
C91      C      0.307710000000     0.287580000000     0.239030000000     0.0193535  
C92      C      0.304600000000     0.310480000000     0.247810000000     0.019389   
C93      C      0.333920000000     0.266700000000     0.205620000000     0.0107833  
C94      C      0.336280000000     0.292270000000     0.225070000000    -0.099069   
C95      C      0.414620000000     0.195730000000     0.062190000000     0.00937457 
C96      C      0.448210000000     0.244560000000     0.213160000000     0.0113326  
C97      C      0.433410000000     0.193870000000     0.209100000000     0.0113539  
C98      C      0.444090000000     0.247320000000     0.174570000000    -0.0987578  
C99      C      0.431980000000     0.197720000000     0.094260000000    -0.0994347  
C100     C      0.428270000000     0.192560000000     0.170170000000    -0.0985427  
C101     C      0.437520000000     0.222880000000     0.117260000000     0.019342   
C102     C      0.438250000000     0.221390000000     0.152670000000     0.0200693  
C103     C      0.429160000000     0.247030000000     0.066050000000     0.00937466 
C104     C      0.446960000000     0.250980000000     0.098450000000    -0.0994898  
C105     C      0.443450000000     0.308960000000     0.868750000000     0.0119111  
C106     C      0.385740000000     0.236720000000     0.734180000000     0.00948072 
C107     C      0.436620000000     0.273770000000     0.725940000000     0.00994681 
C108     C      0.382760000000     0.252380000000     0.765360000000    -0.099286   
C109     C      0.443680000000     0.301320000000     0.830860000000    -0.0988601  
C110     C      0.435700000000     0.291440000000     0.756040000000    -0.0994006  
C111     C      0.414420000000     0.279410000000     0.816190000000     0.0205556  
C112     C      0.411610000000     0.273520000000     0.781410000000     0.019453   
C113     C      0.393920000000     0.271100000000     0.878220000000     0.0115759  
C114     C      0.389820000000     0.260680000000     0.840810000000    -0.0987712  
C115     C      0.085460000000     0.311620000000     0.594360000000     0.010293   
C116     C      0.475670000000     0.303730000000     0.522630000000     0.0111899  
C117     C      0.494810000000     0.339190000000     0.569410000000     0.0109886  
C118     C      0.495940000000     0.292460000000     0.530640000000    -0.0990703  
C119     C      0.067800000000     0.325240000000     0.583620000000    -0.0990298  
C120     C      0.516220000000     0.330260000000     0.581060000000    -0.0988772  
C121     C      0.043400000000     0.306930000000     0.558720000000     0.01909    
C122     C      0.020410000000     0.311140000000     0.555360000000     0.0194975  
C123     C      0.067400000000     0.277250000000     0.546080000000     0.00981001 
C124     C      0.048160000000     0.288380000000     0.532730000000    -0.098652   
C125     C      0.346190000000     0.329240000000     0.565700000000     0.0112681  
C126     C      0.210300000000     0.268830000000     0.574650000000     0.0105837  
C127     C      0.228320000000     0.277860000000     0.514960000000     0.0119131  
C128     C      0.240410000000     0.285310000000     0.590100000000    -0.0984727  
C129     C      0.316560000000     0.311010000000     0.549950000000    -0.0989308  
C130     C      0.259480000000     0.296020000000     0.525950000000    -0.0992009  
C131     C      0.292080000000     0.302250000000     0.575800000000     0.0193379  
C132     C      0.264750000000     0.293080000000     0.564210000000     0.019713   
C133     C      0.328520000000     0.316520000000     0.625390000000     0.0107886  
C134     C      0.297400000000     0.298270000000     0.613760000000    -0.0989943  
C135     C      0.315960000000     0.181650000000     0.541320000000     0.011809   
C136     C      0.384310000000     0.213860000000     0.401250000000     0.00947711 
C137     C      0.342260000000     0.220960000000     0.400130000000     0.0097649  
C138     C      0.370920000000     0.191370000000     0.429660000000    -0.0993258  
C139     C      0.320440000000     0.191060000000     0.503560000000    -0.0987313  
C140     C      0.327010000000     0.198530000000     0.428140000000    -0.0994261  
C141     C      0.343940000000     0.188330000000     0.484690000000     0.0207846  
C142     C      0.348000000000     0.193960000000     0.449890000000     0.0195417  
C143     C      0.357820000000     0.175380000000     0.543120000000     0.0118385  
C144     C      0.365760000000     0.184030000000     0.505360000000    -0.0987979  
C145     C      0.362180000000     0.802340000000     0.601840000000     0.345023   
C146     C      0.444280000000     0.800700000000     0.570880000000     0.341479   
C147     C      0.402390000000     0.760860000000     0.677660000000     0.341395   
C148     C      0.358380000000     0.715020000000     0.574880000000     0.345366   
C149     C      0.312910000000     0.634040000000     0.263420000000     0.345442   
C150     C      0.326650000000     0.725440000000     0.240540000000     0.340828   
C151     C      0.358370000000     0.708460000000     0.346530000000     0.343831   
C152     C      0.403530000000     0.708690000000     0.241250000000     0.342462   
C153     C      0.119300000000     0.811180000000     0.551650000000     0.341829   
C154     C      0.198400000000     0.797420000000     0.535480000000     0.345264   
C155     C      0.176670000000     0.851300000000     0.453640000000     0.339807   
C156     C      0.217530000000     0.885240000000     0.563110000000     0.339952   
C157     C      0.286750000000     0.872860000000     0.242640000000     0.341954   
C158     C      0.303690000000     0.965150000000     0.209420000000     0.344608   
C159     C      0.260080000000     0.887350000000     0.132780000000     0.341673   
C160     C      0.213670000000     0.895310000000     0.235480000000     0.342504   
C161     C      0.270670000000     0.998250000000     0.890400000000     0.34064    
C162     C      0.180830000000     0.918780000000     0.860440000000     0.345768   
C163     C      0.264010000000     0.950070000000     0.787470000000     0.342059   
C164     C      0.252200000000     0.904290000000     0.896510000000     0.341721   
C165     C      0.515120000000     0.761330000000     0.933010000000     0.344848   
C166     C      0.427910000000     0.680000000000     0.906580000000     0.341626   
C167     C      0.435740000000     0.727180000000     0.011520000000     0.341898   
C168     C      0.433500000000     0.768120000000     0.905880000000     0.345095   
C169     C      0.417510000000     0.630090000000     0.904270000000     0.0104767  
C170     C      0.282490000000     0.048570000000     0.893050000000     0.0101876  
C171     C      0.304930000000     0.030760000000     0.934030000000     0.0105304  
C172     C      0.311240000000     0.571030000000     0.878170000000    -0.098709   
C173     C      0.388650000000     0.607130000000     0.918430000000    -0.0988286  
C174     C      0.335160000000     0.552170000000     0.921980000000    -0.0989431  
C175     C      0.362920000000     0.601300000000     0.895920000000     0.0194692  
C176     C      0.337060000000     0.576720000000     0.900380000000     0.0191561  
C177     C      0.395140000000     0.647100000000     0.862160000000     0.0109648  
C178     C      0.364850000000     0.625660000000     0.873910000000    -0.0990715  
C179     C      0.557520000000     0.773050000000     0.897130000000     0.0107949  
C180     C      0.137650000000     0.907980000000     0.894060000000     0.0110324  
C181     C      0.132730000000     0.886020000000     0.836910000000     0.0111184  
C182     C      0.123570000000     0.879360000000     0.912810000000    -0.0986823  
C183     C      0.571430000000     0.801780000000     0.878590000000    -0.0989096  
C184     C      0.117910000000     0.855830000000     0.851670000000    -0.098864   
C185     C      0.087850000000     0.827500000000     0.902460000000     0.0192914  
C186     C      0.107510000000     0.853550000000     0.888990000000     0.0194032  
C187     C      0.563670000000     0.794950000000     0.954600000000     0.0109418  
C188     C      0.577730000000     0.825130000000     0.939900000000    -0.0990903  
C189     C      0.232880000000     0.859920000000     0.930490000000     0.0105398  
C190     C      0.280170000000     0.876600000000     0.081620000000     0.00919172 
C191     C      0.231720000000     0.873720000000     0.079540000000     0.00815548 
C192     C      0.284600000000     0.887840000000     0.044570000000    -0.100372   
C193     C      0.228890000000     0.863790000000     0.968780000000    -0.0991702  
C194     C      0.229290000000     0.859060000000     0.044860000000    -0.100291   
C195     C      0.256950000000     0.877980000000     0.989020000000     0.0190495  
C196     C      0.256850000000     0.875060000000     0.024200000000     0.0190561  
C197     C      0.284550000000     0.894800000000     0.932100000000     0.010547   
C198     C      0.283890000000     0.900680000000     0.970610000000    -0.0995115  
C199     C      0.284830000000     0.935360000000     0.740290000000     0.00970835 
C200     C      0.226930000000     0.926660000000     0.598190000000     0.00747431 
C201     C      0.263870000000     0.911040000000     0.593420000000     0.00994747 
C202     C      0.248460000000     0.947920000000     0.624270000000    -0.100115   
C203     C      0.267420000000     0.920020000000     0.708250000000    -0.0995158  
C204     C      0.266360000000     0.912010000000     0.632760000000    -0.100065   
C205     C      0.263850000000     0.939850000000     0.683260000000     0.0191904  
C206     C      0.259440000000     0.933470000000     0.648730000000     0.0197411  
C207     C      0.276370000000     0.975920000000     0.731770000000     0.0096627  
C208     C      0.258800000000     0.962730000000     0.699060000000    -0.099427   
C209     C      0.164020000000     0.862720000000     0.254610000000     0.0111695  
C210     C      0.190740000000     0.888110000000     0.408390000000     0.00717431 
C211     C      0.166770000000     0.836090000000     0.392720000000     0.00764977 
C212     C      0.172070000000     0.892440000000     0.382090000000    -0.0996562  
C213     C      0.160270000000     0.853410000000     0.292430000000    -0.0985143  
C214     C      0.147570000000     0.839980000000     0.366980000000    -0.0998688  
C215     C      0.167890000000     0.877100000000     0.318990000000     0.0202908  
C216     C      0.162680000000     0.870350000000     0.353440000000     0.0191891  
C217     C      0.187350000000     0.913620000000     0.269170000000     0.0111875  
C218     C      0.185790000000     0.908320000000     0.308070000000    -0.0985561  
C219     C      0.285440000000     0.593210000000     0.224230000000     0.0109027  
C220     C      0.332920000000     0.007690000000     0.245300000000     0.0110004  
C221     C      0.324250000000     0.013330000000     0.184120000000     0.0109429  
C222     C      0.317170000000     0.522710000000     0.258250000000    -0.0989692  
C223     C      0.300890000000     0.577700000000     0.211700000000    -0.0987792  
C224     C      0.308590000000     0.529510000000     0.192800000000    -0.0988937  
C225     C      0.305180000000     0.560070000000     0.239550000000     0.019426   
C226     C      0.311970000000     0.539660000000     0.230350000000     0.0195307  
C227     C      0.291090000000     0.584810000000     0.285520000000     0.0113979  
C228     C      0.307680000000     0.569560000000     0.277270000000    -0.0991747  
C229     C      0.286190000000     0.733700000000     0.229550000000     0.010302   
C230     C      0.326150000000     0.864120000000     0.258040000000     0.0106942  
C231     C      0.277310000000     0.831550000000     0.279060000000     0.0105031  
C232     C      0.327670000000     0.840720000000     0.237860000000    -0.0989574  
C233     C      0.285080000000     0.757360000000     0.249780000000    -0.0988955  
C234     C      0.275780000000     0.805770000000     0.260940000000    -0.098923   
C235     C      0.307710000000     0.787580000000     0.239030000000     0.0193422  
C236     C      0.304600000000     0.810480000000     0.247810000000     0.0194128  
C237     C      0.333920000000     0.766700000000     0.205620000000     0.0107545  
C238     C      0.336280000000     0.792270000000     0.225070000000    -0.099057   
C239     C      0.414620000000     0.695730000000     0.062190000000     0.00935512 
C240     C      0.448210000000     0.744560000000     0.213160000000     0.0113303  
C241     C      0.433410000000     0.693870000000     0.209100000000     0.0113502  
C242     C      0.444090000000     0.747320000000     0.174570000000    -0.0987512  
C243     C      0.431980000000     0.697730000000     0.094260000000    -0.0993317  
C244     C      0.428270000000     0.692560000000     0.170170000000    -0.0985214  
C245     C      0.437520000000     0.722880000000     0.117260000000     0.0193448  
C246     C      0.438260000000     0.721390000000     0.152670000000     0.0200629  
C247     C      0.429160000000     0.747030000000     0.066050000000     0.00937371 
C248     C      0.446960000000     0.750980000000     0.098450000000    -0.0994888  
C249     C      0.443450000000     0.808960000000     0.868750000000     0.0119452  
C250     C      0.385740000000     0.736720000000     0.734180000000     0.00946396 
C251     C      0.436620000000     0.773770000000     0.725940000000     0.00993922 
C252     C      0.382760000000     0.752380000000     0.765360000000    -0.0992792  
C253     C      0.443680000000     0.801320000000     0.830860000000    -0.0988873  
C254     C      0.435700000000     0.791440000000     0.756040000000    -0.0993961  
C255     C      0.414420000000     0.779410000000     0.816190000000     0.0205741  
C256     C      0.411610000000     0.773520000000     0.781410000000     0.0194477  
C257     C      0.393920000000     0.771100000000     0.878220000000     0.0116133  
C258     C      0.389820000000     0.760680000000     0.840810000000    -0.0987934  
C259     C      0.085470000000     0.811620000000     0.594360000000     0.0102982  
C260     C      0.475670000000     0.803730000000     0.522630000000     0.0111895  
C261     C      0.494810000000     0.839190000000     0.569410000000     0.0109875  
C262     C      0.495940000000     0.792460000000     0.530640000000    -0.099071   
C263     C      0.067800000000     0.825240000000     0.583620000000    -0.0990419  
C264     C      0.516220000000     0.830260000000     0.581060000000    -0.0988777  
C265     C      0.043400000000     0.806930000000     0.558720000000     0.019108   
C266     C      0.020410000000     0.811140000000     0.555360000000     0.0194911  
C267     C      0.067400000000     0.777250000000     0.546080000000     0.00982343 
C268     C      0.048160000000     0.788380000000     0.532730000000    -0.0987013  
C269     C      0.346190000000     0.829240000000     0.565700000000     0.0112892  
C270     C      0.210300000000     0.768830000000     0.574650000000     0.0105787  
C271     C      0.228320000000     0.777860000000     0.514960000000     0.0119082  
C272     C      0.240410000000     0.785310000000     0.590100000000    -0.0984588  
C273     C      0.316560000000     0.811010000000     0.549950000000    -0.0989943  
C274     C      0.259480000000     0.796020000000     0.525950000000    -0.0991869  
C275     C      0.292080000000     0.802250000000     0.575800000000     0.0193696  
C276     C      0.264750000000     0.793070000000     0.564210000000     0.0196864  
C277     C      0.328520000000     0.816520000000     0.625390000000     0.0108265  
C278     C      0.297400000000     0.798270000000     0.613760000000    -0.0990173  
C279     C      0.315960000000     0.681650000000     0.541320000000     0.0118096  
C280     C      0.384310000000     0.713860000000     0.401250000000     0.00948507 
C281     C      0.342260000000     0.720960000000     0.400130000000     0.00979235 
C282     C      0.370920000000     0.691370000000     0.429660000000    -0.0993166  
C283     C      0.320440000000     0.691060000000     0.503560000000    -0.0987351  
C284     C      0.327020000000     0.698540000000     0.428140000000    -0.0994088  
C285     C      0.343940000000     0.688330000000     0.484690000000     0.0207933  
C286     C      0.348000000000     0.693960000000     0.449890000000     0.0195446  
C287     C      0.357820000000     0.675380000000     0.543120000000     0.0118439  
C288     C      0.365760000000     0.684030000000     0.505360000000    -0.0988249  
C289     C      0.862180000000     0.302340000000     0.601840000000     0.345024   
C290     C      0.944280000000     0.300700000000     0.570880000000     0.341496   
C291     C      0.902390000000     0.260860000000     0.677660000000     0.341584   
C292     C      0.858380000000     0.215020000000     0.574880000000     0.345364   
C293     C      0.812910000000     0.134040000000     0.263420000000     0.345605   
C294     C      0.826650000000     0.225440000000     0.240540000000     0.340829   
C295     C      0.858370000000     0.208460000000     0.346530000000     0.343929   
C296     C      0.903530000000     0.208690000000     0.241250000000     0.342461   
C297     C      0.619300000000     0.311180000000     0.551650000000     0.341829   
C298     C      0.698390000000     0.297420000000     0.535480000000     0.34536    
C299     C      0.676670000000     0.351300000000     0.453640000000     0.339811   
C300     C      0.717530000000     0.385240000000     0.563110000000     0.339948   
C301     C      0.786750000000     0.372860000000     0.242640000000     0.341953   
C302     C      0.803690000000     0.465150000000     0.209420000000     0.344609   
C303     C      0.760080000000     0.387350000000     0.132780000000     0.34167    
C304     C      0.713670000000     0.395310000000     0.235480000000     0.342358   
C305     C      0.770670000000     0.498250000000     0.890400000000     0.340656   
C306     C      0.680830000000     0.418780000000     0.860440000000     0.345764   
C307     C      0.764010000000     0.450070000000     0.787470000000     0.342059   
C308     C      0.752200000000     0.404290000000     0.896510000000     0.341729   
C309     C      0.015120000000     0.261330000000     0.933010000000     0.344647   
C310     C      0.927910000000     0.180000000000     0.906580000000     0.341627   
C311     C      0.935740000000     0.227180000000     0.011520000000     0.341901   
C312     C      0.933500000000     0.268120000000     0.905880000000     0.344852   
C313     C      0.917510000000     0.130090000000     0.904270000000     0.0104744  
C314     C      0.782490000000     0.548570000000     0.893050000000     0.0101913  
C315     C      0.804930000000     0.530760000000     0.934030000000     0.0105359  
C316     C      0.811240000000     0.071030000000     0.878170000000    -0.0987027  
C317     C      0.888650000000     0.107130000000     0.918430000000    -0.0988258  
C318     C      0.835150000000     0.052170000000     0.921980000000    -0.0988377  
C319     C      0.862920000000     0.101300000000     0.895920000000     0.0194598  
C320     C      0.837060000000     0.076720000000     0.900380000000     0.0191311  
C321     C      0.895140000000     0.147100000000     0.862160000000     0.0109986  
C322     C      0.864850000000     0.125670000000     0.873910000000    -0.0991352  
C323     C      0.057520000000     0.273050000000     0.897130000000     0.0108167  
C324     C      0.637650000000     0.407980000000     0.894060000000     0.0110459  
C325     C      0.632730000000     0.386020000000     0.836910000000     0.0111545  
C326     C      0.623570000000     0.379360000000     0.912810000000    -0.0987237  
C327     C      0.071430000000     0.301780000000     0.878590000000    -0.0989131  
C328     C      0.617910000000     0.355830000000     0.851660000000    -0.0989166  
C329     C      0.587850000000     0.327500000000     0.902460000000     0.0193051  
C330     C      0.607510000000     0.353550000000     0.888990000000     0.0194051  
C331     C      0.063670000000     0.294960000000     0.954600000000     0.0109422  
C332     C      0.077730000000     0.325130000000     0.939900000000    -0.0990892  
C333     C      0.732880000000     0.359920000000     0.930490000000     0.0105448  
C334     C      0.780170000000     0.376600000000     0.081620000000     0.00919069 
C335     C      0.731720000000     0.373720000000     0.079540000000     0.00813623 
C336     C      0.784600000000     0.387840000000     0.044570000000    -0.100377   
C337     C      0.728890000000     0.363790000000     0.968780000000    -0.0991771  
C338     C      0.729290000000     0.359060000000     0.044850000000    -0.100317   
C339     C      0.756950000000     0.377980000000     0.989020000000     0.0190574  
C340     C      0.756850000000     0.375060000000     0.024200000000     0.0190722  
C341     C      0.784540000000     0.394800000000     0.932100000000     0.010695   
C342     C      0.783890000000     0.400680000000     0.970610000000    -0.0995754  
C343     C      0.784830000000     0.435360000000     0.740290000000     0.00970831 
C344     C      0.726930000000     0.426660000000     0.598190000000     0.00744304 
C345     C      0.763870000000     0.411040000000     0.593420000000     0.00994444 
C346     C      0.748470000000     0.447920000000     0.624270000000    -0.100077   
C347     C      0.767420000000     0.420020000000     0.708250000000    -0.0995141  
C348     C      0.766360000000     0.412010000000     0.632760000000    -0.100052   
C349     C      0.763850000000     0.439860000000     0.683260000000     0.019198   
C350     C      0.759440000000     0.433480000000     0.648730000000     0.0197361  
C351     C      0.776370000000     0.475920000000     0.731770000000     0.00969876 
C352     C      0.758800000000     0.462730000000     0.699060000000    -0.0994534  
C353     C      0.664020000000     0.362720000000     0.254610000000     0.0111627  
C354     C      0.690740000000     0.388110000000     0.408390000000     0.00717689 
C355     C      0.666770000000     0.336090000000     0.392720000000     0.00766385 
C356     C      0.672070000000     0.392440000000     0.382090000000    -0.0996618  
C357     C      0.660270000000     0.353410000000     0.292430000000    -0.0985171  
C358     C      0.647570000000     0.339980000000     0.366980000000    -0.0999157  
C359     C      0.667900000000     0.377100000000     0.318990000000     0.0202977  
C360     C      0.662680000000     0.370350000000     0.353440000000     0.0191999  
C361     C      0.687350000000     0.413620000000     0.269170000000     0.0111445  
C362     C      0.685790000000     0.408320000000     0.308070000000    -0.0985447  
C363     C      0.785440000000     0.093210000000     0.224230000000     0.0109132  
C364     C      0.832920000000     0.507690000000     0.245300000000     0.0113073  
C365     C      0.824250000000     0.513330000000     0.184120000000     0.0110343  
C366     C      0.817170000000     0.022710000000     0.258250000000    -0.0988363  
C367     C      0.800890000000     0.077700000000     0.211700000000    -0.0987955  
C368     C      0.808590000000     0.029500000000     0.192800000000    -0.0987879  
C369     C      0.805180000000     0.060070000000     0.239550000000     0.0194545  
C370     C      0.811970000000     0.039660000000     0.230350000000     0.0194409  
C371     C      0.791090000000     0.084810000000     0.285520000000     0.0114112  
C372     C      0.807680000000     0.069560000000     0.277270000000    -0.09919    
C373     C      0.786190000000     0.233700000000     0.229550000000     0.010305   
C374     C      0.826150000000     0.364120000000     0.258040000000     0.0106913  
C375     C      0.777310000000     0.331550000000     0.279060000000     0.0104858  
C376     C      0.827670000000     0.340720000000     0.237860000000    -0.0989503  
C377     C      0.785080000000     0.257360000000     0.249780000000    -0.098901   
C378     C      0.775780000000     0.305770000000     0.260940000000    -0.0988672  
C379     C      0.807710000000     0.287580000000     0.239030000000     0.019354   
C380     C      0.804600000000     0.310480000000     0.247810000000     0.0193936  
C381     C      0.833920000000     0.266700000000     0.205620000000     0.0107835  
C382     C      0.836280000000     0.292270000000     0.225070000000    -0.0990702  
C383     C      0.914620000000     0.195730000000     0.062190000000     0.00937869 
C384     C      0.948210000000     0.244560000000     0.213160000000     0.0113307  
C385     C      0.933410000000     0.193870000000     0.209100000000     0.0113432  
C386     C      0.944090000000     0.247320000000     0.174570000000    -0.0987578  
C387     C      0.931980000000     0.197720000000     0.094260000000    -0.0994404  
C388     C      0.928270000000     0.192560000000     0.170170000000    -0.0985404  
C389     C      0.937520000000     0.222880000000     0.117260000000     0.0193521  
C390     C      0.938250000000     0.221390000000     0.152670000000     0.020075   
C391     C      0.929160000000     0.247030000000     0.066050000000     0.00937913 
C392     C      0.946960000000     0.250980000000     0.098450000000    -0.0994964  
C393     C      0.943450000000     0.308960000000     0.868750000000     0.0119297  
C394     C      0.885740000000     0.236720000000     0.734180000000     0.00948012 
C395     C      0.936620000000     0.273770000000     0.725940000000     0.00994531 
C396     C      0.882760000000     0.252380000000     0.765360000000    -0.0992858  
C397     C      0.943680000000     0.301320000000     0.830860000000    -0.0988698  
C398     C      0.935700000000     0.291440000000     0.756040000000    -0.0994017  
C399     C      0.914420000000     0.279410000000     0.816190000000     0.0205662  
C400     C      0.911610000000     0.273520000000     0.781410000000     0.0194548  
C401     C      0.893920000000     0.271100000000     0.878220000000     0.0116064  
C402     C      0.889820000000     0.260680000000     0.840810000000    -0.0987823  
C403     C      0.585460000000     0.311620000000     0.594360000000     0.010296   
C404     C      0.975670000000     0.303730000000     0.522630000000     0.0111094  
C405     C      0.994810000000     0.339190000000     0.569410000000     0.011319   
C406     C      0.995940000000     0.292460000000     0.530640000000    -0.0986856  
C407     C      0.567800000000     0.325240000000     0.583620000000    -0.0990227  
C408     C      0.016220000000     0.330260000000     0.581060000000    -0.0990357  
C409     C      0.543400000000     0.306930000000     0.558720000000     0.0190502  
C410     C      0.520410000000     0.311140000000     0.555360000000     0.0196803  
C411     C      0.567400000000     0.277250000000     0.546080000000     0.00980389 
C412     C      0.548160000000     0.288380000000     0.532730000000    -0.0986291  
C413     C      0.846190000000     0.329240000000     0.565700000000     0.0112702  
C414     C      0.710300000000     0.268830000000     0.574650000000     0.0105659  
C415     C      0.728320000000     0.277860000000     0.514960000000     0.0118862  
C416     C      0.740410000000     0.285310000000     0.590100000000    -0.0984582  
C417     C      0.816560000000     0.311010000000     0.549950000000    -0.0989379  
C418     C      0.759480000000     0.296020000000     0.525950000000    -0.099126   
C419     C      0.792080000000     0.302250000000     0.575800000000     0.0193528  
C420     C      0.764750000000     0.293080000000     0.564210000000     0.019688   
C421     C      0.828530000000     0.316520000000     0.625390000000     0.0108297  
C422     C      0.797400000000     0.298270000000     0.613760000000    -0.0990131  
C423     C      0.815960000000     0.181650000000     0.541320000000     0.0118078  
C424     C      0.884310000000     0.213860000000     0.401250000000     0.00947981 
C425     C      0.842260000000     0.220960000000     0.400130000000     0.00978964 
C426     C      0.870920000000     0.191370000000     0.429660000000    -0.0993353  
C427     C      0.820440000000     0.191060000000     0.503560000000    -0.0987289  
C428     C      0.827010000000     0.198530000000     0.428140000000    -0.0995053  
C429     C      0.843940000000     0.188330000000     0.484690000000     0.0207753  
C430     C      0.848000000000     0.193960000000     0.449890000000     0.0195653  
C431     C      0.857820000000     0.175380000000     0.543120000000     0.011837   
C432     C      0.865760000000     0.184030000000     0.505360000000    -0.0987954  
C433     C      0.862180000000     0.802340000000     0.601840000000     0.345025   
C434     C      0.944280000000     0.800700000000     0.570880000000     0.341496   
C435     C      0.902390000000     0.760860000000     0.677660000000     0.341397   
C436     C      0.858380000000     0.715020000000     0.574880000000     0.345365   
C437     C      0.812910000000     0.634040000000     0.263420000000     0.345443   
C438     C      0.826650000000     0.725440000000     0.240540000000     0.340828   
C439     C      0.858370000000     0.708460000000     0.346530000000     0.343832   
C440     C      0.903530000000     0.708690000000     0.241250000000     0.342462   
C441     C      0.619300000000     0.811180000000     0.551650000000     0.34183    
C442     C      0.698390000000     0.797420000000     0.535480000000     0.345361   
C443     C      0.676670000000     0.851300000000     0.453640000000     0.339808   
C444     C      0.717530000000     0.885240000000     0.563110000000     0.33995    
C445     C      0.786750000000     0.872860000000     0.242640000000     0.341953   
C446     C      0.803690000000     0.965150000000     0.209420000000     0.344609   
C447     C      0.760080000000     0.887350000000     0.132780000000     0.341674   
C448     C      0.713670000000     0.895310000000     0.235480000000     0.342507   
C449     C      0.770670000000     0.998250000000     0.890400000000     0.34079    
C450     C      0.680830000000     0.918780000000     0.860440000000     0.345767   
C451     C      0.764010000000     0.950070000000     0.787470000000     0.342061   
C452     C      0.752200000000     0.904290000000     0.896510000000     0.341723   
C453     C      0.015120000000     0.761330000000     0.933010000000     0.344648   
C454     C      0.927910000000     0.680000000000     0.906580000000     0.341627   
C455     C      0.935740000000     0.727180000000     0.011520000000     0.3419     
C456     C      0.933510000000     0.768120000000     0.905880000000     0.344943   
C457     C      0.917510000000     0.630090000000     0.904270000000     0.0104741  
C458     C      0.782490000000     0.048570000000     0.893050000000     0.0101894  
C459     C      0.804930000000     0.030760000000     0.934030000000     0.0105393  
C460     C      0.811240000000     0.571030000000     0.878170000000    -0.0987099  
C461     C      0.888650000000     0.607130000000     0.918430000000    -0.0988281  
C462     C      0.835160000000     0.552170000000     0.921980000000    -0.098945   
C463     C      0.862920000000     0.601300000000     0.895920000000     0.0194706  
C464     C      0.837060000000     0.576720000000     0.900380000000     0.0191579  
C465     C      0.895140000000     0.647100000000     0.862160000000     0.0109636  
C466     C      0.864850000000     0.625660000000     0.873910000000    -0.0990714  
C467     C      0.057520000000     0.773050000000     0.897130000000     0.0108174  
C468     C      0.637650000000     0.907980000000     0.894060000000     0.0110325  
C469     C      0.632730000000     0.886020000000     0.836910000000     0.0111295  
C470     C      0.623570000000     0.879360000000     0.912810000000    -0.0986844  
C471     C      0.071430000000     0.801780000000     0.878590000000    -0.0989168  
C472     C      0.617910000000     0.855830000000     0.851670000000    -0.0988711  
C473     C      0.587850000000     0.827500000000     0.902460000000     0.0192982  
C474     C      0.607510000000     0.853550000000     0.888990000000     0.0194119  
C475     C      0.063670000000     0.794950000000     0.954600000000     0.0109345  
C476     C      0.077730000000     0.825130000000     0.939900000000    -0.0990864  
C477     C      0.732880000000     0.859920000000     0.930490000000     0.0105404  
C478     C      0.780170000000     0.876600000000     0.081620000000     0.00919098 
C479     C      0.731720000000     0.873720000000     0.079540000000     0.00818509 
C480     C      0.784600000000     0.887840000000     0.044570000000    -0.100372   
C481     C      0.728890000000     0.863790000000     0.968780000000    -0.0991729  
C482     C      0.729280000000     0.859060000000     0.044860000000    -0.100353   
C483     C      0.756950000000     0.877980000000     0.989020000000     0.0190546  
C484     C      0.756850000000     0.875060000000     0.024200000000     0.0190498  
C485     C      0.784550000000     0.894800000000     0.932100000000     0.0105472  
C486     C      0.783890000000     0.900680000000     0.970610000000    -0.0995136  
C487     C      0.784830000000     0.935360000000     0.740290000000     0.00970818 
C488     C      0.726930000000     0.926660000000     0.598190000000     0.00744422 
C489     C      0.763870000000     0.911040000000     0.593420000000     0.00994853 
C490     C      0.748470000000     0.947920000000     0.624270000000    -0.100081   
C491     C      0.767420000000     0.920020000000     0.708250000000    -0.0995162  
C492     C      0.766360000000     0.912010000000     0.632760000000    -0.100069   
C493     C      0.763850000000     0.939850000000     0.683260000000     0.0191899  
C494     C      0.759440000000     0.933470000000     0.648730000000     0.0197563  
C495     C      0.776370000000     0.975920000000     0.731770000000     0.00969197 
C496     C      0.758800000000     0.962730000000     0.699060000000    -0.0994386  
C497     C      0.664020000000     0.862720000000     0.254610000000     0.011174   
C498     C      0.690740000000     0.888110000000     0.408390000000     0.00717872 
C499     C      0.666770000000     0.836090000000     0.392720000000     0.00767723 
C500     C      0.672070000000     0.892440000000     0.382090000000    -0.0996673  
C501     C      0.660270000000     0.853410000000     0.292430000000    -0.0985262  
C502     C      0.647570000000     0.839980000000     0.366980000000    -0.0999621  
C503     C      0.667900000000     0.877100000000     0.318990000000     0.02031    
C504     C      0.662680000000     0.870350000000     0.353440000000     0.0192124  
C505     C      0.687360000000     0.913620000000     0.269170000000     0.0112662  
C506     C      0.685790000000     0.908320000000     0.308070000000    -0.0985969  
C507     C      0.785440000000     0.593210000000     0.224230000000     0.0109021  
C508     C      0.832920000000     0.007690000000     0.245300000000     0.0110006  
C509     C      0.824250000000     0.013330000000     0.184120000000     0.0109424  
C510     C      0.817170000000     0.522710000000     0.258250000000    -0.0989693  
C511     C      0.800890000000     0.577700000000     0.211700000000    -0.0987797  
C512     C      0.808590000000     0.529510000000     0.192800000000    -0.0988939  
C513     C      0.805180000000     0.560070000000     0.239550000000     0.0194277  
C514     C      0.811970000000     0.539660000000     0.230350000000     0.0195324  
C515     C      0.791090000000     0.584810000000     0.285520000000     0.0113978  
C516     C      0.807680000000     0.569560000000     0.277270000000    -0.0991759  
C517     C      0.786190000000     0.733700000000     0.229550000000     0.0103017  
C518     C      0.826150000000     0.864120000000     0.258040000000     0.0106936  
C519     C      0.777310000000     0.831550000000     0.279060000000     0.0105031  
C520     C      0.827670000000     0.840720000000     0.237860000000    -0.0989583  
C521     C      0.785080000000     0.757360000000     0.249780000000    -0.0988963  
C522     C      0.775780000000     0.805770000000     0.260940000000    -0.0989241  
C523     C      0.807710000000     0.787580000000     0.239030000000     0.0193439  
C524     C      0.804600000000     0.810480000000     0.247810000000     0.0194145  
C525     C      0.833920000000     0.766700000000     0.205620000000     0.0107548  
C526     C      0.836280000000     0.792270000000     0.225070000000    -0.0990586  
C527     C      0.914620000000     0.695730000000     0.062190000000     0.00934697 
C528     C      0.948210000000     0.744560000000     0.213160000000     0.0113307  
C529     C      0.933410000000     0.693870000000     0.209100000000     0.0113405  
C530     C      0.944090000000     0.747320000000     0.174570000000    -0.0987579  
C531     C      0.931980000000     0.697730000000     0.094260000000    -0.0993283  
C532     C      0.928270000000     0.692560000000     0.170170000000    -0.0985217  
C533     C      0.937520000000     0.722880000000     0.117260000000     0.0193479  
C534     C      0.938250000000     0.721390000000     0.152670000000     0.0200776  
C535     C      0.929160000000     0.747030000000     0.066050000000     0.00937695 
C536     C      0.946960000000     0.750980000000     0.098450000000    -0.0994924  
C537     C      0.943450000000     0.808960000000     0.868750000000     0.011912   
C538     C      0.885740000000     0.736720000000     0.734180000000     0.00946389 
C539     C      0.936620000000     0.773770000000     0.725940000000     0.00993826 
C540     C      0.882760000000     0.752380000000     0.765360000000    -0.0992808  
C541     C      0.943680000000     0.801320000000     0.830860000000    -0.098881   
C542     C      0.935700000000     0.791440000000     0.756040000000    -0.099399   
C543     C      0.914420000000     0.779410000000     0.816190000000     0.0205736  
C544     C      0.911610000000     0.773520000000     0.781410000000     0.0194539  
C545     C      0.893920000000     0.771100000000     0.878220000000     0.0116028  
C546     C      0.889820000000     0.760680000000     0.840810000000    -0.0987904  
C547     C      0.585470000000     0.811620000000     0.594360000000     0.0102894  
C548     C      0.975670000000     0.803730000000     0.522630000000     0.0111079  
C549     C      0.994810000000     0.839190000000     0.569410000000     0.0113142  
C550     C      0.995940000000     0.792460000000     0.530640000000    -0.0986834  
C551     C      0.567800000000     0.825240000000     0.583620000000    -0.0990164  
C552     C      0.016220000000     0.830260000000     0.581060000000    -0.0990317  
C553     C      0.543400000000     0.806930000000     0.558720000000     0.0190499  
C554     C      0.520410000000     0.811140000000     0.555360000000     0.0196825  
C555     C      0.567400000000     0.777250000000     0.546080000000     0.00980364 
C556     C      0.548160000000     0.788380000000     0.532730000000    -0.0986287  
C557     C      0.846190000000     0.829240000000     0.565700000000     0.0112893  
C558     C      0.710300000000     0.768830000000     0.574650000000     0.0105611  
C559     C      0.728320000000     0.777860000000     0.514960000000     0.0118814  
C560     C      0.740410000000     0.785310000000     0.590100000000    -0.0984449  
C561     C      0.816560000000     0.811010000000     0.549950000000    -0.0989986  
C562     C      0.759480000000     0.796020000000     0.525950000000    -0.0991126  
C563     C      0.792080000000     0.802250000000     0.575800000000     0.0193806  
C564     C      0.764750000000     0.793070000000     0.564210000000     0.019663   
C565     C      0.828520000000     0.816520000000     0.625390000000     0.0108272  
C566     C      0.797400000000     0.798270000000     0.613760000000    -0.0990219  
C567     C      0.815960000000     0.681650000000     0.541320000000     0.0118093  
C568     C      0.884310000000     0.713860000000     0.401250000000     0.00948869 
C569     C      0.842260000000     0.720960000000     0.400130000000     0.00982481 
C570     C      0.870920000000     0.691370000000     0.429660000000    -0.0993323  
C571     C      0.820440000000     0.691060000000     0.503560000000    -0.0987355  
C572     C      0.827010000000     0.698540000000     0.428140000000    -0.0995162  
C573     C      0.843940000000     0.688330000000     0.484690000000     0.0207943  
C574     C      0.848000000000     0.693960000000     0.449890000000     0.0195482  
C575     C      0.857820000000     0.675380000000     0.543120000000     0.0118437  
C576     C      0.865760000000     0.684030000000     0.505360000000    -0.0988264  
Cd1      Cd     0.390980000000     0.269760000000     0.607380000000     0.50487    
Cd2      Cd     0.350120000000     0.194160000000     0.274020000000     0.504843   
Cd3      Cd     0.176900000000     0.335900000000     0.525080000000     0.504611   
Cd4      Cd     0.266100000000     0.404620000000     0.204300000000     0.504759   
Cd5      Cd     0.242000000000     0.443270000000     0.857090000000     0.504352   
Cd6      Cd     0.453820000000     0.234600000000     0.940270000000     0.504942   
Cd7      Cd     0.390980000000     0.769760000000     0.607380000000     0.50486    
Cd8      Cd     0.350120000000     0.694160000000     0.274020000000     0.504829   
Cd9      Cd     0.176900000000     0.835900000000     0.525090000000     0.504614   
Cd10     Cd     0.266100000000     0.904620000000     0.204300000000     0.50479    
Cd11     Cd     0.242000000000     0.943270000000     0.857090000000     0.504347   
Cd12     Cd     0.453820000000     0.734600000000     0.940270000000     0.504949   
Cd13     Cd     0.890980000000     0.269760000000     0.607380000000     0.504876   
Cd14     Cd     0.850120000000     0.194160000000     0.274020000000     0.504845   
Cd15     Cd     0.676900000000     0.335900000000     0.525080000000     0.504613   
Cd16     Cd     0.766100000000     0.404620000000     0.204300000000     0.504761   
Cd17     Cd     0.742000000000     0.443270000000     0.857090000000     0.504353   
Cd18     Cd     0.953820000000     0.234600000000     0.940270000000     0.504989   
Cd19     Cd     0.890980000000     0.769760000000     0.607380000000     0.504866   
Cd20     Cd     0.850120000000     0.694160000000     0.274020000000     0.504831   
Cd21     Cd     0.676900000000     0.835900000000     0.525090000000     0.504615   
Cd22     Cd     0.766100000000     0.904620000000     0.204300000000     0.504791   
Cd23     Cd     0.742000000000     0.943270000000     0.857090000000     0.504364   
Cd24     Cd     0.953820000000     0.734600000000     0.940270000000     0.504989   
H1       H      0.390420000000     0.087730000000     0.921290000000     0.0464888  
H2       H      0.277040000000     0.558250000000     0.914940000000     0.0322404  
H3       H      0.401220000000     0.137240000000     0.841100000000     0.0312978  
H4       H      0.352020000000     0.117500000000     0.849960000000     0.0461619  
H5       H      0.309720000000     0.090550000000     0.875060000000     0.0465275  
H6       H      0.348200000000     0.060110000000     0.945800000000     0.0462535  
H7       H      0.434020000000     0.136650000000     0.924730000000     0.0436269  
H8       H      0.265610000000     0.542340000000     0.873120000000     0.0439403  
H9       H      0.356260000000     0.137040000000     0.889190000000     0.0577888  
H10      H      0.343520000000     0.540800000000     0.906280000000     0.0574528  
H11      H      0.395450000000     0.166210000000     0.851350000000     0.0415172  
H12      H      0.299240000000     0.540460000000     0.955670000000     0.0316194  
H13      H      0.385510000000     0.113740000000     0.944430000000     0.0577059  
H14      H      0.313920000000     0.063960000000     0.852230000000     0.0573422  
H15      H      0.304580000000     0.511440000000     0.944190000000     0.0425525  
H16      H      0.423730000000     0.120710000000     0.882790000000     0.0318794  
H17      H      0.585720000000     0.300740000000     0.858810000000     0.046511   
H18      H      0.120700000000     0.412920000000     0.886720000000     0.0315314  
H19      H      0.580720000000     0.289770000000     0.960340000000     0.0307219  
H20      H      0.095820000000     0.338430000000     0.957400000000     0.0461567  
H21      H      0.108970000000     0.380400000000     0.932140000000     0.0466068  
H22      H      0.099840000000     0.342820000000     0.834000000000     0.0462868  
H23      H      0.542120000000     0.256200000000     0.879490000000     0.0426716  
H24      H      0.152610000000     0.424990000000     0.911850000000     0.0428736  
H25      H      0.562160000000     0.332800000000     0.941150000000     0.0585279  
H26      H      0.133070000000     0.347650000000     0.850700000000     0.0587276  
H27      H      0.552850000000     0.294120000000     0.979300000000     0.0424791  
H28      H      0.116050000000     0.391500000000     0.830160000000     0.0310364  
H29      H      0.554520000000     0.304070000000     0.865200000000     0.0575538  
H30      H      0.140350000000     0.377190000000     0.926740000000     0.0577583  
H31      H      0.144120000000     0.386710000000     0.812760000000     0.042645   
H32      H      0.574490000000     0.267900000000     0.903520000000     0.0312893  
H33      H      0.218610000000     0.377040000000     0.971270000000     0.0579884  
H34      H      0.273930000000     0.353730000000     0.081050000000     0.0340008  
H35      H      0.302130000000     0.413890000000     0.919400000000     0.0434296  
H36      H      0.284750000000     0.421450000000     0.973570000000     0.0603981  
H37      H      0.299740000000     0.382360000000     0.032170000000     0.0465194  
H38      H      0.224670000000     0.336950000000     0.049370000000     0.0525315  
H39      H      0.238000000000     0.342550000000     0.927910000000     0.0307923  
H40      H      0.300870000000     0.388140000000     0.095560000000     0.0433948  
H41      H      0.303770000000     0.402970000000     0.981840000000     0.0462312  
H42      H      0.210680000000     0.358040000000     0.031450000000     0.0464864  
H43      H      0.289160000000     0.377100000000     0.929260000000     0.0309799  
H44      H      0.212260000000     0.360210000000     0.095100000000     0.0408234  
H45      H      0.214090000000     0.342240000000     0.979140000000     0.0456038  
H46      H      0.294360000000     0.411350000000     0.045210000000     0.0558692  
H47      H      0.232240000000     0.394190000000     0.074950000000     0.0406243  
H48      H      0.212570000000     0.353250000000     0.916460000000     0.0414911  
H49      H      0.278120000000     0.409250000000     0.696360000000     0.0459286  
H50      H      0.205950000000     0.413810000000     0.611260000000     0.0436925  
H51      H      0.299050000000     0.489960000000     0.724130000000     0.0315182  
H52      H      0.264970000000     0.480680000000     0.680890000000     0.0461184  
H53      H      0.237150000000     0.457390000000     0.637800000000     0.0467411  
H54      H      0.251410000000     0.390480000000     0.643090000000     0.0564065  
H55      H      0.283670000000     0.419390000000     0.759120000000     0.0433572  
H56      H      0.223500000000     0.438480000000     0.577080000000     0.0386091  
H57      H      0.235730000000     0.453160000000     0.705220000000     0.0578608  
H58      H      0.288610000000     0.417710000000     0.639320000000     0.0459771  
H59      H      0.268980000000     0.489500000000     0.744320000000     0.0435904  
H60      H      0.267320000000     0.393790000000     0.583470000000     0.0419536  
H61      H      0.245810000000     0.403210000000     0.716510000000     0.0590683  
H62      H      0.266900000000     0.465230000000     0.610290000000     0.0512325  
H63      H      0.281120000000     0.431430000000     0.582680000000     0.032483   
H64      H      0.307550000000     0.448830000000     0.732480000000     0.0317073  
H65      H      0.137540000000     0.336640000000     0.295390000000     0.0458622  
H66      H      0.211480000000     0.393910000000     0.395940000000     0.0359936  
H67      H      0.167550000000     0.413490000000     0.261060000000     0.0301981  
H68      H      0.176830000000     0.420930000000     0.319590000000     0.0453444  
H69      H      0.184200000000     0.414780000000     0.373290000000     0.045784   
H70      H      0.141170000000     0.323340000000     0.347030000000     0.0462855  
H71      H      0.165290000000     0.346570000000     0.238260000000     0.0431196  
H72      H      0.195250000000     0.402940000000     0.430330000000     0.0438719  
H73      H      0.207900000000     0.416720000000     0.317870000000     0.0572393  
H74      H      0.127650000000     0.335870000000     0.380300000000     0.0554378  
H75      H      0.205690000000     0.435050000000     0.263280000000     0.0410871  
H76      H      0.185500000000     0.337880000000     0.378580000000     0.0361048  
H77      H      0.173930000000     0.343840000000     0.297410000000     0.0578351  
H78      H      0.152710000000     0.389880000000     0.395370000000     0.0547792  
H79      H      0.154730000000     0.314250000000     0.403540000000     0.0453863  
H80      H      0.144760000000     0.363610000000     0.246430000000     0.0305112  
H81      H      0.287990000000     0.064090000000     0.189900000000     0.0463399  
H82      H      0.355810000000     0.523920000000     0.241570000000     0.0314681  
H83      H      0.267940000000     0.068710000000     0.286460000000     0.0307437  
H84      H      0.299320000000     0.051110000000     0.295080000000     0.0462307  
H85      H      0.330330000000     0.036760000000     0.279630000000     0.0466471  
H86      H      0.316990000000     0.047720000000     0.174620000000     0.0458833  
H87      H      0.288090000000     0.109490000000     0.204920000000     0.0426421  
H88      H      0.331840000000     0.492420000000     0.265160000000     0.0433003  
H89      H      0.330620000000     0.084060000000     0.283240000000     0.0587347  
H90      H      0.285450000000     0.515410000000     0.187520000000     0.0583209  
H91      H      0.297380000000     0.094810000000     0.311440000000     0.0418867  
H92      H      0.347360000000     0.529060000000     0.181010000000     0.0308357  
H93      H      0.322230000000     0.093700000000     0.201660000000     0.0572054  
H94      H      0.296170000000     0.506520000000     0.268910000000     0.0586535  
H95      H      0.316360000000     0.502120000000     0.159080000000     0.0423849  
H96      H      0.262230000000     0.077470000000     0.226100000000     0.0314089  
H97      H      0.263170000000     0.253760000000     0.246010000000     0.0465697  
H98      H      0.334380000000     0.364850000000     0.284540000000     0.0320627  
H99      H      0.323870000000     0.265360000000     0.180110000000     0.0312866  
H100     H      0.345920000000     0.310290000000     0.206600000000     0.0465152  
H101     H      0.349390000000     0.344050000000     0.242550000000     0.046861   
H102     H      0.266220000000     0.288150000000     0.279950000000     0.0465175  
H103     H      0.273030000000     0.213050000000     0.242940000000     0.0436072  
H104     H      0.340280000000     0.385040000000     0.245690000000     0.0438473  
H105     H      0.351200000000     0.297300000000     0.247110000000     0.0581207  
H106     H      0.261040000000     0.299980000000     0.238570000000     0.0572954  
H107     H      0.355650000000     0.270050000000     0.200790000000     0.0423649  
H108     H      0.285960000000     0.332950000000     0.305480000000     0.0317732  
H109     H      0.288020000000     0.254720000000     0.277630000000     0.0575925  
H110     H      0.325510000000     0.343780000000     0.209910000000     0.0581346  
H111     H      0.255420000000     0.328350000000     0.281780000000     0.0426405  
H112     H      0.276540000000     0.232080000000     0.203710000000     0.031897   
H113     H      0.419860000000     0.176860000000     0.107290000000     0.0459803  
H114     H      0.470490000000     0.249190000000     0.217410000000     0.0302233  
H115     H      0.407340000000     0.241790000000     0.074220000000     0.0338109  
H116     H      0.445110000000     0.266890000000     0.114420000000     0.046619   
H117     H      0.463770000000     0.266500000000     0.165420000000     0.0462376  
H118     H      0.439480000000     0.182040000000     0.158780000000     0.0457337  
H119     H      0.413450000000     0.178840000000     0.044940000000     0.0431349  
H120     H      0.445430000000     0.260630000000     0.227770000000     0.042825   
H121     H      0.469750000000     0.260230000000     0.091020000000     0.0570771  
H122     H      0.404960000000     0.178890000000     0.165520000000     0.0576055  
H123     H      0.438720000000     0.267440000000     0.051630000000     0.0439711  
H124     H      0.456030000000     0.199750000000     0.213610000000     0.0300997  
H125     H      0.452890000000     0.200360000000     0.086180000000     0.0571277  
H126     H      0.425750000000     0.251000000000     0.171480000000     0.0588513  
H127     H      0.419660000000     0.172530000000     0.220680000000     0.0410603  
H128     H      0.392470000000     0.189200000000     0.070430000000     0.0332743  
H129     H      0.452630000000     0.321520000000     0.816070000000     0.0462119  
H130     H      0.392010000000     0.221280000000     0.743670000000     0.033028   
H131     H      0.387780000000     0.287790000000     0.880150000000     0.030226   
H132     H      0.369610000000     0.259080000000     0.831590000000     0.0462551  
H133     H      0.368360000000     0.235580000000     0.783580000000     0.0463806  
H134     H      0.457200000000     0.301430000000     0.767930000000     0.0464552  
H135     H      0.465520000000     0.319340000000     0.879320000000     0.0410611  
H136     H      0.364680000000     0.224430000000     0.721210000000     0.0436081  
H137     H      0.387210000000     0.239030000000     0.840830000000     0.0591039  
H138     H      0.432370000000     0.308700000000     0.745910000000     0.057988   
H139     H      0.379500000000     0.253290000000     0.895460000000     0.0422434  
H140     H      0.443680000000     0.259070000000     0.735940000000     0.0330354  
H141     H      0.458330000000     0.292620000000     0.828180000000     0.0589746  
H142     H      0.371990000000     0.264270000000     0.757110000000     0.0573497  
H143     H      0.452780000000     0.288090000000     0.706870000000     0.0430901  
H144     H      0.435870000000     0.324570000000     0.870410000000     0.0301044  
H145     H      0.059720000000     0.329360000000     0.607980000000     0.0466607  
H146     H      0.486230000000     0.321300000000     0.503560000000     0.0307909  
H147     H      0.054870000000     0.259690000000     0.564610000000     0.0325491  
H148     H      0.027750000000     0.269240000000     0.525430000000     0.0461887  
H149     H      0.504370000000     0.290350000000     0.505380000000     0.0458386  
H150     H      0.036650000000     0.350290000000     0.585660000000     0.0466312  
H151     H      0.104930000000     0.327560000000     0.608240000000     0.043646   
H152     H      0.455860000000     0.286640000000     0.510490000000     0.0410586  
H153     H      0.057900000000     0.301180000000     0.509090000000     0.0563565  
H154     H      0.508770000000     0.318660000000     0.605930000000     0.0585822  
H155     H      0.073630000000     0.268210000000     0.524260000000     0.043467   
H156     H      0.505260000000     0.356190000000     0.549630000000     0.0313346  
H157     H      0.082090000000     0.345980000000     0.571000000000     0.0577649  
H158     H      0.483350000000     0.270960000000     0.542270000000     0.0577548  
H159     H      0.489090000000     0.348300000000     0.591630000000     0.0434045  
H160     H      0.072560000000     0.294010000000     0.612670000000     0.0323407  
H161     H      0.315090000000     0.323750000000     0.528480000000     0.0468044  
H162     H      0.204500000000     0.246190000000     0.571700000000     0.0314747  
H163     H      0.332920000000     0.338620000000     0.629620000000     0.0304322  
H164     H      0.284630000000     0.303780000000     0.631230000000     0.0459833  
H165     H      0.241090000000     0.271830000000     0.611200000000     0.0464524  
H166     H      0.271850000000     0.289480000000     0.509190000000     0.0464965  
H167     H      0.362730000000     0.331230000000     0.547090000000     0.0424136  
H168     H      0.194710000000     0.269540000000     0.592720000000     0.0427695  
H169     H      0.290710000000     0.275510000000     0.617790000000     0.0582685  
H170     H      0.266540000000     0.318700000000     0.520620000000     0.0603247  
H171     H      0.331620000000     0.308460000000     0.650430000000     0.0422292  
H172     H      0.223090000000     0.255290000000     0.513430000000     0.0307877  
H173     H      0.315110000000     0.291420000000     0.538970000000     0.0582117  
H174     H      0.243310000000     0.305330000000     0.601600000000     0.057366   
H175     H      0.225340000000     0.284360000000     0.488800000000     0.0427737  
H176     H      0.349590000000     0.350940000000     0.570370000000     0.0310762  
H177     H      0.299620000000     0.178090000000     0.490280000000     0.0460005  
H178     H      0.397680000000     0.234940000000     0.413690000000     0.0333245  
H179     H      0.342940000000     0.152010000000     0.544220000000     0.0296909  
H180     H      0.368860000000     0.167270000000     0.493080000000     0.0459997  
H181     H      0.388890000000     0.193870000000     0.445890000000     0.046269   
H182     H      0.314520000000     0.205840000000     0.443280000000     0.0463768  
H183     H      0.304390000000     0.190820000000     0.555100000000     0.0408903  
H184     H      0.398610000000     0.209340000000     0.385220000000     0.0432951  
H185     H      0.386470000000     0.204360000000     0.504990000000     0.0596415  
H186     H      0.311650000000     0.178010000000     0.415820000000     0.0578289  
H187     H      0.377250000000     0.180070000000     0.558060000000     0.0416521  
H188     H      0.354790000000     0.242070000000     0.412810000000     0.0334212  
H189     H      0.326080000000     0.213750000000     0.502790000000     0.0589658  
H190     H      0.360870000000     0.169890000000     0.417780000000     0.0573926  
H191     H      0.326090000000     0.221840000000     0.383260000000     0.042982   
H192     H      0.302350000000     0.158090000000     0.542260000000     0.0297449  
H193     H      0.390420000000     0.587730000000     0.921290000000     0.0465018  
H194     H      0.277040000000     0.058250000000     0.914940000000     0.0322245  
H195     H      0.401230000000     0.637240000000     0.841100000000     0.0313133  
H196     H      0.352020000000     0.617500000000     0.849960000000     0.046158   
H197     H      0.309720000000     0.590550000000     0.875060000000     0.0465355  
H198     H      0.348200000000     0.560110000000     0.945800000000     0.0462646  
H199     H      0.434020000000     0.636650000000     0.924730000000     0.043633   
H200     H      0.265610000000     0.042340000000     0.873120000000     0.0439019  
H201     H      0.356260000000     0.637040000000     0.889190000000     0.0577507  
H202     H      0.343520000000     0.040800000000     0.906280000000     0.0574281  
H203     H      0.395450000000     0.666210000000     0.851350000000     0.0415228  
H204     H      0.299240000000     0.040460000000     0.955670000000     0.0316009  
H205     H      0.385510000000     0.613740000000     0.944430000000     0.0577118  
H206     H      0.313920000000     0.563960000000     0.852230000000     0.0573657  
H207     H      0.304580000000     0.011440000000     0.944190000000     0.042508   
H208     H      0.423730000000     0.620710000000     0.882790000000     0.0318884  
H209     H      0.585720000000     0.800740000000     0.858810000000     0.0465077  
H210     H      0.120700000000     0.912920000000     0.886730000000     0.0315444  
H211     H      0.580720000000     0.789770000000     0.960340000000     0.0307252  
H212     H      0.095820000000     0.838430000000     0.957400000000     0.0461598  
H213     H      0.108970000000     0.880400000000     0.932140000000     0.0465998  
H214     H      0.099840000000     0.842820000000     0.834000000000     0.0462389  
H215     H      0.542120000000     0.756200000000     0.879490000000     0.042683   
H216     H      0.152610000000     0.924990000000     0.911850000000     0.0428921  
H217     H      0.562160000000     0.832800000000     0.941150000000     0.0585291  
H218     H      0.133070000000     0.847640000000     0.850700000000     0.0586652  
H219     H      0.552850000000     0.794120000000     0.979300000000     0.042486   
H220     H      0.116050000000     0.891500000000     0.830160000000     0.0310573  
H221     H      0.554520000000     0.804070000000     0.865200000000     0.0575515  
H222     H      0.140350000000     0.877190000000     0.926750000000     0.0577349  
H223     H      0.144120000000     0.886710000000     0.812760000000     0.0426631  
H224     H      0.574480000000     0.767900000000     0.903520000000     0.0313088  
H225     H      0.218610000000     0.877040000000     0.971270000000     0.0579942  
H226     H      0.273930000000     0.853730000000     0.081050000000     0.0340034  
H227     H      0.302130000000     0.913890000000     0.919400000000     0.0434432  
H228     H      0.284750000000     0.921450000000     0.973570000000     0.0604156  
H229     H      0.299740000000     0.882360000000     0.032170000000     0.0465242  
H230     H      0.224670000000     0.836950000000     0.049370000000     0.052529   
H231     H      0.238000000000     0.842550000000     0.927910000000     0.0307937  
H232     H      0.300870000000     0.888140000000     0.095560000000     0.043404   
H233     H      0.303770000000     0.902970000000     0.981840000000     0.0462434  
H234     H      0.210680000000     0.858040000000     0.031450000000     0.0464709  
H235     H      0.289160000000     0.877100000000     0.929260000000     0.0309845  
H236     H      0.212260000000     0.860210000000     0.095100000000     0.0408241  
H237     H      0.214090000000     0.842240000000     0.979140000000     0.0456055  
H238     H      0.294360000000     0.911350000000     0.045210000000     0.0558824  
H239     H      0.232240000000     0.894190000000     0.074950000000     0.0406314  
H240     H      0.212570000000     0.853250000000     0.916460000000     0.0414925  
H241     H      0.278120000000     0.909250000000     0.696360000000     0.0459324  
H242     H      0.205950000000     0.913810000000     0.611260000000     0.0436964  
H243     H      0.299050000000     0.989960000000     0.724130000000     0.0315453  
H244     H      0.264970000000     0.980680000000     0.680890000000     0.0461349  
H245     H      0.237150000000     0.957390000000     0.637800000000     0.0467553  
H246     H      0.251410000000     0.890480000000     0.643090000000     0.0564098  
H247     H      0.283670000000     0.919390000000     0.759120000000     0.0433633  
H248     H      0.223500000000     0.938480000000     0.577080000000     0.0386236  
H249     H      0.235730000000     0.953160000000     0.705220000000     0.0578661  
H250     H      0.288610000000     0.917710000000     0.639320000000     0.0459887  
H251     H      0.268980000000     0.989500000000     0.744320000000     0.043616   
H252     H      0.267320000000     0.893790000000     0.583470000000     0.0419576  
H253     H      0.245810000000     0.903210000000     0.716510000000     0.0590693  
H254     H      0.266900000000     0.965230000000     0.610290000000     0.0512527  
H255     H      0.281120000000     0.931430000000     0.582680000000     0.0324953  
H256     H      0.307550000000     0.948830000000     0.732480000000     0.0317223  
H257     H      0.137540000000     0.836640000000     0.295390000000     0.0458626  
H258     H      0.211480000000     0.893910000000     0.395940000000     0.0360018  
H259     H      0.167540000000     0.913490000000     0.261060000000     0.0301945  
H260     H      0.176830000000     0.920930000000     0.319590000000     0.0453598  
H261     H      0.184200000000     0.914780000000     0.373290000000     0.0457994  
H262     H      0.141170000000     0.823340000000     0.347040000000     0.0463153  
H263     H      0.165290000000     0.846570000000     0.238260000000     0.0431191  
H264     H      0.195250000000     0.902940000000     0.430330000000     0.0438823  
H265     H      0.207900000000     0.916720000000     0.317870000000     0.0572531  
H266     H      0.127650000000     0.835870000000     0.380300000000     0.0554504  
H267     H      0.205690000000     0.935050000000     0.263280000000     0.0410937  
H268     H      0.185500000000     0.837880000000     0.378580000000     0.0361034  
H269     H      0.173930000000     0.843840000000     0.297410000000     0.0578356  
H270     H      0.152710000000     0.889880000000     0.395370000000     0.0547898  
H271     H      0.154730000000     0.814250000000     0.403540000000     0.045383   
H272     H      0.144760000000     0.863610000000     0.246430000000     0.030515   
H273     H      0.287990000000     0.564090000000     0.189900000000     0.0463488  
H274     H      0.355810000000     0.023920000000     0.241570000000     0.0315045  
H275     H      0.267940000000     0.568710000000     0.286460000000     0.0307637  
H276     H      0.299320000000     0.551110000000     0.295080000000     0.0462417  
H277     H      0.330330000000     0.536760000000     0.279630000000     0.0466943  
H278     H      0.316990000000     0.547720000000     0.174620000000     0.0459417  
H279     H      0.288090000000     0.609490000000     0.204920000000     0.0426524  
H280     H      0.331840000000     0.992420000000     0.265160000000     0.0434574  
H281     H      0.330620000000     0.584060000000     0.283240000000     0.0587366  
H282     H      0.285450000000     0.015410000000     0.187520000000     0.0582666  
H283     H      0.297380000000     0.594810000000     0.311440000000     0.0419008  
H284     H      0.347360000000     0.029070000000     0.181010000000     0.03083    
H285     H      0.322230000000     0.593700000000     0.201660000000     0.0572054  
H286     H      0.296170000000     0.006510000000     0.268910000000     0.0585763  
H287     H      0.316360000000     0.002120000000     0.159080000000     0.0423591  
H288     H      0.262230000000     0.577470000000     0.226100000000     0.0314261  
H289     H      0.263170000000     0.753760000000     0.246010000000     0.0465699  
H290     H      0.334390000000     0.864850000000     0.284540000000     0.0320565  
H291     H      0.323870000000     0.765360000000     0.180120000000     0.0313018  
H292     H      0.345920000000     0.810290000000     0.206600000000     0.0465156  
H293     H      0.349390000000     0.844050000000     0.242550000000     0.0468694  
H294     H      0.266220000000     0.788150000000     0.279950000000     0.0465307  
H295     H      0.273030000000     0.713050000000     0.242940000000     0.0436115  
H296     H      0.340280000000     0.885040000000     0.245690000000     0.0438516  
H297     H      0.351200000000     0.797300000000     0.247110000000     0.0581208  
H298     H      0.261040000000     0.799980000000     0.238580000000     0.0573256  
H299     H      0.355650000000     0.770050000000     0.200790000000     0.0423745  
H300     H      0.285960000000     0.832950000000     0.305480000000     0.0317741  
H301     H      0.288020000000     0.754720000000     0.277630000000     0.0575929  
H302     H      0.325510000000     0.843780000000     0.209910000000     0.0581421  
H303     H      0.255420000000     0.828350000000     0.281780000000     0.0426369  
H304     H      0.276540000000     0.732080000000     0.203710000000     0.0319006  
H305     H      0.419860000000     0.676860000000     0.107290000000     0.0459298  
H306     H      0.470490000000     0.749190000000     0.217410000000     0.030226   
H307     H      0.407340000000     0.741790000000     0.074220000000     0.0338137  
H308     H      0.445110000000     0.766890000000     0.114420000000     0.0466218  
H309     H      0.463770000000     0.766500000000     0.165420000000     0.0462387  
H310     H      0.439480000000     0.682040000000     0.158780000000     0.0457303  
H311     H      0.413460000000     0.678840000000     0.044940000000     0.0431431  
H312     H      0.445430000000     0.760630000000     0.227770000000     0.0428281  
H313     H      0.469750000000     0.760230000000     0.091020000000     0.0570794  
H314     H      0.404960000000     0.678880000000     0.165520000000     0.0575946  
H315     H      0.438720000000     0.767440000000     0.051630000000     0.0439743  
H316     H      0.456030000000     0.699750000000     0.213620000000     0.0301037  
H317     H      0.452890000000     0.700360000000     0.086180000000     0.0570875  
H318     H      0.425750000000     0.751000000000     0.171480000000     0.0588529  
H319     H      0.419660000000     0.672530000000     0.220680000000     0.0410632  
H320     H      0.392470000000     0.689200000000     0.070430000000     0.0332843  
H321     H      0.452630000000     0.821520000000     0.816070000000     0.0462236  
H322     H      0.392010000000     0.721280000000     0.743670000000     0.0330351  
H323     H      0.387780000000     0.787790000000     0.880150000000     0.0302194  
H324     H      0.369610000000     0.759080000000     0.831590000000     0.0462626  
H325     H      0.368360000000     0.735580000000     0.783580000000     0.0463829  
H326     H      0.457200000000     0.801430000000     0.767930000000     0.0464582  
H327     H      0.465520000000     0.819340000000     0.879320000000     0.0410601  
H328     H      0.364680000000     0.724430000000     0.721220000000     0.0436089  
H329     H      0.387210000000     0.739030000000     0.840840000000     0.0591136  
H330     H      0.432370000000     0.808700000000     0.745910000000     0.0579925  
H331     H      0.379490000000     0.753290000000     0.895460000000     0.0422159  
H332     H      0.443680000000     0.759070000000     0.735940000000     0.0330394  
H333     H      0.458330000000     0.792620000000     0.828190000000     0.0589899  
H334     H      0.371990000000     0.764270000000     0.757110000000     0.0573526  
H335     H      0.452780000000     0.788090000000     0.706870000000     0.0430959  
H336     H      0.435870000000     0.824570000000     0.870410000000     0.0301033  
H337     H      0.059720000000     0.829360000000     0.607980000000     0.0466651  
H338     H      0.486230000000     0.821300000000     0.503560000000     0.0307956  
H339     H      0.054870000000     0.759690000000     0.564610000000     0.0325472  
H340     H      0.027760000000     0.769240000000     0.525430000000     0.0462188  
H341     H      0.504370000000     0.790350000000     0.505380000000     0.0458409  
H342     H      0.036650000000     0.850290000000     0.585660000000     0.0466343  
H343     H      0.104930000000     0.827560000000     0.608240000000     0.0436477  
H344     H      0.455860000000     0.786640000000     0.510490000000     0.0410603  
H345     H      0.057900000000     0.801180000000     0.509090000000     0.0563696  
H346     H      0.508770000000     0.818660000000     0.605930000000     0.058584   
H347     H      0.073630000000     0.768210000000     0.524260000000     0.0434647  
H348     H      0.505260000000     0.856190000000     0.549630000000     0.0313431  
H349     H      0.082080000000     0.845980000000     0.571000000000     0.0577735  
H350     H      0.483350000000     0.770960000000     0.542270000000     0.0577563  
H351     H      0.489090000000     0.848300000000     0.591630000000     0.0434112  
H352     H      0.072560000000     0.794010000000     0.612670000000     0.0323425  
H353     H      0.315090000000     0.823740000000     0.528480000000     0.046842   
H354     H      0.204500000000     0.746190000000     0.571700000000     0.0314801  
H355     H      0.332920000000     0.838620000000     0.629620000000     0.0304278  
H356     H      0.284630000000     0.803780000000     0.631230000000     0.0459904  
H357     H      0.241090000000     0.771830000000     0.611200000000     0.0464511  
H358     H      0.271850000000     0.789480000000     0.509190000000     0.046493   
H359     H      0.362730000000     0.831230000000     0.547090000000     0.0424127  
H360     H      0.194710000000     0.769540000000     0.592720000000     0.0427727  
H361     H      0.290710000000     0.775510000000     0.617790000000     0.0582761  
H362     H      0.266540000000     0.818700000000     0.520620000000     0.0603254  
H363     H      0.331620000000     0.808460000000     0.650440000000     0.0422183  
H364     H      0.223090000000     0.755290000000     0.513430000000     0.0307921  
H365     H      0.315110000000     0.791420000000     0.538970000000     0.0582242  
H366     H      0.243310000000     0.805330000000     0.601600000000     0.0573645  
H367     H      0.225340000000     0.784360000000     0.488800000000     0.0427772  
H368     H      0.349590000000     0.850940000000     0.570370000000     0.0310787  
H369     H      0.299620000000     0.678090000000     0.490280000000     0.0460051  
H370     H      0.397680000000     0.734940000000     0.413690000000     0.0333237  
H371     H      0.342940000000     0.652010000000     0.544220000000     0.0296998  
H372     H      0.368860000000     0.667270000000     0.493090000000     0.0460231  
H373     H      0.388890000000     0.693870000000     0.445890000000     0.0462678  
H374     H      0.314530000000     0.705840000000     0.443280000000     0.0463946  
H375     H      0.304390000000     0.690820000000     0.555100000000     0.0408952  
H376     H      0.398610000000     0.709340000000     0.385220000000     0.0432918  
H377     H      0.386470000000     0.704360000000     0.504990000000     0.0596488  
H378     H      0.311650000000     0.678010000000     0.415820000000     0.0577994  
H379     H      0.377250000000     0.680070000000     0.558060000000     0.0416557  
H380     H      0.354790000000     0.742070000000     0.412810000000     0.0334161  
H381     H      0.326080000000     0.713750000000     0.502790000000     0.0589661  
H382     H      0.360880000000     0.669890000000     0.417780000000     0.0573914  
H383     H      0.326090000000     0.721840000000     0.383260000000     0.0429735  
H384     H      0.302350000000     0.658090000000     0.542260000000     0.0297554  
H385     H      0.890420000000     0.087730000000     0.921290000000     0.046497   
H386     H      0.777040000000     0.558250000000     0.914940000000     0.0322433  
H387     H      0.901230000000     0.137240000000     0.841100000000     0.0313071  
H388     H      0.852020000000     0.117500000000     0.849960000000     0.0461672  
H389     H      0.809720000000     0.090550000000     0.875060000000     0.0465276  
H390     H      0.848200000000     0.060110000000     0.945800000000     0.0462142  
H391     H      0.934020000000     0.136650000000     0.924730000000     0.043645   
H392     H      0.765610000000     0.542340000000     0.873120000000     0.0439436  
H393     H      0.856260000000     0.137040000000     0.889190000000     0.057791   
H394     H      0.843520000000     0.540800000000     0.906280000000     0.0574584  
H395     H      0.895450000000     0.166210000000     0.851350000000     0.0415203  
H396     H      0.799240000000     0.540460000000     0.955670000000     0.0316215  
H397     H      0.885510000000     0.113740000000     0.944430000000     0.057711   
H398     H      0.813920000000     0.063960000000     0.852230000000     0.0573418  
H399     H      0.804580000000     0.511440000000     0.944190000000     0.0425549  
H400     H      0.923730000000     0.120710000000     0.882790000000     0.0318947  
H401     H      0.085720000000     0.300740000000     0.858810000000     0.0464949  
H402     H      0.620700000000     0.412920000000     0.886720000000     0.0315478  
H403     H      0.080720000000     0.289770000000     0.960340000000     0.0307108  
H404     H      0.595820000000     0.338430000000     0.957400000000     0.046169   
H405     H      0.608970000000     0.380400000000     0.932140000000     0.0466176  
H406     H      0.599840000000     0.342820000000     0.834000000000     0.0462826  
H407     H      0.042120000000     0.256200000000     0.879490000000     0.0426292  
H408     H      0.652610000000     0.424990000000     0.911850000000     0.0428819  
H409     H      0.062160000000     0.332800000000     0.941150000000     0.0584999  
H410     H      0.633080000000     0.347650000000     0.850700000000     0.0586832  
H411     H      0.052850000000     0.294120000000     0.979300000000     0.0424572  
H412     H      0.616050000000     0.391500000000     0.830160000000     0.0310578  
H413     H      0.054520000000     0.304070000000     0.865200000000     0.0575183  
H414     H      0.640350000000     0.377190000000     0.926740000000     0.0577591  
H415     H      0.644130000000     0.386710000000     0.812760000000     0.0426654  
H416     H      0.074490000000     0.267900000000     0.903520000000     0.0312774  
H417     H      0.718610000000     0.377040000000     0.971270000000     0.0579928  
H418     H      0.773930000000     0.353730000000     0.081050000000     0.0340045  
H419     H      0.802130000000     0.413890000000     0.919400000000     0.0433903  
H420     H      0.784750000000     0.421450000000     0.973570000000     0.0604137  
H421     H      0.799740000000     0.382360000000     0.032170000000     0.0465227  
H422     H      0.724670000000     0.336950000000     0.049370000000     0.0525357  
H423     H      0.738000000000     0.342550000000     0.927910000000     0.030793   
H424     H      0.800870000000     0.388140000000     0.095560000000     0.0433994  
H425     H      0.803770000000     0.402970000000     0.981840000000     0.0462505  
H426     H      0.710680000000     0.358040000000     0.031450000000     0.0464901  
H427     H      0.789160000000     0.377100000000     0.929260000000     0.0309415  
H428     H      0.712260000000     0.360210000000     0.095100000000     0.04083    
H429     H      0.714090000000     0.342240000000     0.979140000000     0.0456105  
H430     H      0.794360000000     0.411350000000     0.045210000000     0.0558719  
H431     H      0.732240000000     0.394190000000     0.074950000000     0.0406278  
H432     H      0.712570000000     0.353250000000     0.916460000000     0.0414926  
H433     H      0.778120000000     0.409250000000     0.696360000000     0.0459314  
H434     H      0.705950000000     0.413810000000     0.611260000000     0.0437013  
H435     H      0.799050000000     0.489960000000     0.724130000000     0.0315182  
H436     H      0.764970000000     0.480680000000     0.680890000000     0.0461249  
H437     H      0.737150000000     0.457390000000     0.637800000000     0.0467085  
H438     H      0.751410000000     0.390480000000     0.643090000000     0.0564092  
H439     H      0.783670000000     0.419390000000     0.759120000000     0.0433606  
H440     H      0.723500000000     0.438480000000     0.577080000000     0.0386185  
H441     H      0.735730000000     0.453160000000     0.705220000000     0.0578651  
H442     H      0.788610000000     0.417710000000     0.639320000000     0.0459824  
H443     H      0.768970000000     0.489500000000     0.744320000000     0.0435857  
H444     H      0.767320000000     0.393790000000     0.583470000000     0.0419567  
H445     H      0.745810000000     0.403210000000     0.716510000000     0.0590701  
H446     H      0.766900000000     0.465230000000     0.610290000000     0.0512431  
H447     H      0.781120000000     0.431430000000     0.582680000000     0.0324882  
H448     H      0.807550000000     0.448830000000     0.732480000000     0.0317134  
H449     H      0.637540000000     0.336640000000     0.295390000000     0.0458748  
H450     H      0.711480000000     0.393910000000     0.395940000000     0.0359939  
H451     H      0.667550000000     0.413490000000     0.261060000000     0.0302093  
H452     H      0.676830000000     0.420930000000     0.319590000000     0.0453502  
H453     H      0.684200000000     0.414780000000     0.373290000000     0.0457918  
H454     H      0.641170000000     0.323340000000     0.347030000000     0.0463177  
H455     H      0.665290000000     0.346570000000     0.238260000000     0.0431296  
H456     H      0.695250000000     0.402940000000     0.430330000000     0.0438741  
H457     H      0.707900000000     0.416720000000     0.317870000000     0.0572392  
H458     H      0.627660000000     0.335870000000     0.380300000000     0.0555038  
H459     H      0.705690000000     0.435050000000     0.263280000000     0.0410912  
H460     H      0.685500000000     0.337880000000     0.378580000000     0.0361016  
H461     H      0.673930000000     0.343840000000     0.297410000000     0.0578381  
H462     H      0.652710000000     0.389880000000     0.395370000000     0.0547916  
H463     H      0.654730000000     0.314250000000     0.403540000000     0.0453852  
H464     H      0.644760000000     0.363610000000     0.246430000000     0.0305268  
H465     H      0.787990000000     0.064090000000     0.189900000000     0.0463421  
H466     H      0.855810000000     0.523920000000     0.241570000000     0.0314778  
H467     H      0.767940000000     0.068710000000     0.286460000000     0.0307471  
H468     H      0.799320000000     0.051110000000     0.295080000000     0.0462334  
H469     H      0.830330000000     0.036760000000     0.279630000000     0.0466522  
H470     H      0.816990000000     0.047720000000     0.174620000000     0.0458859  
H471     H      0.788090000000     0.109490000000     0.204920000000     0.0426445  
H472     H      0.831840000000     0.492420000000     0.265160000000     0.0433065  
H473     H      0.830620000000     0.084060000000     0.283240000000     0.0587393  
H474     H      0.785450000000     0.515410000000     0.187520000000     0.0583229  
H475     H      0.797380000000     0.094810000000     0.311440000000     0.0418897  
H476     H      0.847360000000     0.529060000000     0.181010000000     0.0308431  
H477     H      0.822230000000     0.093700000000     0.201660000000     0.0572072  
H478     H      0.796170000000     0.506520000000     0.268910000000     0.0586551  
H479     H      0.816360000000     0.502120000000     0.159080000000     0.0423887  
H480     H      0.762230000000     0.077470000000     0.226100000000     0.0314132  
H481     H      0.763170000000     0.253760000000     0.246010000000     0.0465734  
H482     H      0.834390000000     0.364850000000     0.284540000000     0.0320563  
H483     H      0.823870000000     0.265360000000     0.180110000000     0.0312896  
H484     H      0.845920000000     0.310290000000     0.206600000000     0.0465209  
H485     H      0.849390000000     0.344050000000     0.242550000000     0.0468698  
H486     H      0.766220000000     0.288150000000     0.279950000000     0.046521   
H487     H      0.773030000000     0.213050000000     0.242940000000     0.0436109  
H488     H      0.840280000000     0.385040000000     0.245690000000     0.0438493  
H489     H      0.851200000000     0.297300000000     0.247110000000     0.058127   
H490     H      0.761040000000     0.299980000000     0.238570000000     0.057299   
H491     H      0.855650000000     0.270050000000     0.200790000000     0.0423698  
H492     H      0.785960000000     0.332950000000     0.305480000000     0.0317772  
H493     H      0.788020000000     0.254720000000     0.277630000000     0.0575951  
H494     H      0.825510000000     0.343780000000     0.209910000000     0.0581405  
H495     H      0.755420000000     0.328350000000     0.281780000000     0.042643   
H496     H      0.776540000000     0.232080000000     0.203710000000     0.0319007  
H497     H      0.919860000000     0.176860000000     0.107290000000     0.0459876  
H498     H      0.970490000000     0.249190000000     0.217410000000     0.0302504  
H499     H      0.907340000000     0.241790000000     0.074220000000     0.0338128  
H500     H      0.945110000000     0.266890000000     0.114420000000     0.0466325  
H501     H      0.963770000000     0.266500000000     0.165420000000     0.0462583  
H502     H      0.939480000000     0.182040000000     0.158780000000     0.0457472  
H503     H      0.913450000000     0.178840000000     0.044940000000     0.0431406  
H504     H      0.945430000000     0.260630000000     0.227770000000     0.0428419  
H505     H      0.969750000000     0.260230000000     0.091020000000     0.0571057  
H506     H      0.904960000000     0.178890000000     0.165520000000     0.0576047  
H507     H      0.938720000000     0.267440000000     0.051630000000     0.0439849  
H508     H      0.956030000000     0.199750000000     0.213610000000     0.0301261  
H509     H      0.952890000000     0.200360000000     0.086180000000     0.0571499  
H510     H      0.925750000000     0.251000000000     0.171480000000     0.0588558  
H511     H      0.919650000000     0.172530000000     0.220680000000     0.0410831  
H512     H      0.892470000000     0.189200000000     0.070430000000     0.0332741  
H513     H      0.952630000000     0.321520000000     0.816070000000     0.0462328  
H514     H      0.892010000000     0.221280000000     0.743670000000     0.0330352  
H515     H      0.887780000000     0.287790000000     0.880150000000     0.0302228  
H516     H      0.869610000000     0.259080000000     0.831590000000     0.0462591  
H517     H      0.868360000000     0.235580000000     0.783580000000     0.0463823  
H518     H      0.957200000000     0.301430000000     0.767930000000     0.0464766  
H519     H      0.965520000000     0.319340000000     0.879320000000     0.041084   
H520     H      0.864680000000     0.224430000000     0.721210000000     0.0436112  
H521     H      0.887210000000     0.239030000000     0.840830000000     0.0591097  
H522     H      0.932370000000     0.308700000000     0.745910000000     0.058001   
H523     H      0.879490000000     0.253290000000     0.895460000000     0.0422214  
H524     H      0.943680000000     0.259070000000     0.735940000000     0.0330556  
H525     H      0.958330000000     0.292620000000     0.828180000000     0.0589978  
H526     H      0.871990000000     0.264270000000     0.757110000000     0.0573523  
H527     H      0.952780000000     0.288090000000     0.706870000000     0.0431153  
H528     H      0.935870000000     0.324570000000     0.870410000000     0.0301151  
H529     H      0.559720000000     0.329360000000     0.607980000000     0.0466717  
H530     H      0.986230000000     0.321300000000     0.503560000000     0.0308674  
H531     H      0.554870000000     0.259690000000     0.564610000000     0.0325749  
H532     H      0.527750000000     0.269240000000     0.525430000000     0.0462223  
H533     H      0.004370000000     0.290350000000     0.505380000000     0.0456413  
H534     H      0.536650000000     0.350290000000     0.585660000000     0.0466212  
H535     H      0.604930000000     0.327560000000     0.608240000000     0.0436554  
H536     H      0.955860000000     0.286640000000     0.510490000000     0.0410988  
H537     H      0.557900000000     0.301180000000     0.509090000000     0.0563658  
H538     H      0.008770000000     0.318660000000     0.605930000000     0.0585524  
H539     H      0.573630000000     0.268210000000     0.524260000000     0.0434834  
H540     H      0.005260000000     0.356190000000     0.549630000000     0.031144   
H541     H      0.582080000000     0.345980000000     0.571000000000     0.0577712  
H542     H      0.983360000000     0.270960000000     0.542270000000     0.0577238  
H543     H      0.989100000000     0.348300000000     0.591630000000     0.0433791  
H544     H      0.572560000000     0.294010000000     0.612670000000     0.0323593  
H545     H      0.815090000000     0.323750000000     0.528480000000     0.0468096  
H546     H      0.704500000000     0.246190000000     0.571700000000     0.0314828  
H547     H      0.832920000000     0.338620000000     0.629620000000     0.0304267  
H548     H      0.784630000000     0.303780000000     0.631230000000     0.0459897  
H549     H      0.741090000000     0.271830000000     0.611200000000     0.0464523  
H550     H      0.771860000000     0.289480000000     0.509190000000     0.0464566  
H551     H      0.862730000000     0.331230000000     0.547090000000     0.0424214  
H552     H      0.694710000000     0.269540000000     0.592720000000     0.0427813  
H553     H      0.790710000000     0.275510000000     0.617790000000     0.0582736  
H554     H      0.766540000000     0.318700000000     0.520620000000     0.060314   
H555     H      0.831620000000     0.308460000000     0.650430000000     0.0422193  
H556     H      0.723090000000     0.255290000000     0.513430000000     0.030798   
H557     H      0.815110000000     0.291420000000     0.538970000000     0.0582143  
H558     H      0.743310000000     0.305330000000     0.601600000000     0.057367   
H559     H      0.725340000000     0.284360000000     0.488800000000     0.0427878  
H560     H      0.849590000000     0.350940000000     0.570370000000     0.0310832  
H561     H      0.799620000000     0.178090000000     0.490280000000     0.0460007  
H562     H      0.897680000000     0.234940000000     0.413690000000     0.0333363  
H563     H      0.842940000000     0.152010000000     0.544220000000     0.0296969  
H564     H      0.868860000000     0.167270000000     0.493080000000     0.0460074  
H565     H      0.888890000000     0.193870000000     0.445890000000     0.0462821  
H566     H      0.814530000000     0.205840000000     0.443280000000     0.0464249  
H567     H      0.804390000000     0.190820000000     0.555100000000     0.0408926  
H568     H      0.898610000000     0.209340000000     0.385220000000     0.043308   
H569     H      0.886470000000     0.204360000000     0.504990000000     0.0596496  
H570     H      0.811650000000     0.178010000000     0.415820000000     0.0578494  
H571     H      0.877250000000     0.180070000000     0.558060000000     0.0416635  
H572     H      0.854790000000     0.242070000000     0.412810000000     0.0334196  
H573     H      0.826080000000     0.213750000000     0.502790000000     0.0589648  
H574     H      0.860870000000     0.169890000000     0.417780000000     0.0574003  
H575     H      0.826090000000     0.221840000000     0.383260000000     0.0429787  
H576     H      0.802350000000     0.158090000000     0.542260000000     0.0297485  
H577     H      0.890420000000     0.587730000000     0.921290000000     0.0465103  
H578     H      0.777040000000     0.058250000000     0.914940000000     0.0322258  
H579     H      0.901230000000     0.637240000000     0.841100000000     0.0313248  
H580     H      0.852020000000     0.617500000000     0.849960000000     0.046161   
H581     H      0.809720000000     0.590550000000     0.875060000000     0.0465375  
H582     H      0.848200000000     0.560110000000     0.945800000000     0.046269   
H583     H      0.934020000000     0.636650000000     0.924730000000     0.0436515  
H584     H      0.765610000000     0.042340000000     0.873120000000     0.0439028  
H585     H      0.856260000000     0.637040000000     0.889190000000     0.0577511  
H586     H      0.843520000000     0.040800000000     0.906280000000     0.0573786  
H587     H      0.895450000000     0.666210000000     0.851350000000     0.0415288  
H588     H      0.799230000000     0.040460000000     0.955670000000     0.0316044  
H589     H      0.885510000000     0.613740000000     0.944430000000     0.0577155  
H590     H      0.813920000000     0.563960000000     0.852230000000     0.0573687  
H591     H      0.804580000000     0.011440000000     0.944190000000     0.0425061  
H592     H      0.923730000000     0.620710000000     0.882790000000     0.0319057  
H593     H      0.085720000000     0.800740000000     0.858810000000     0.0464975  
H594     H      0.620700000000     0.912920000000     0.886730000000     0.0315596  
H595     H      0.080720000000     0.789770000000     0.960340000000     0.0307128  
H596     H      0.595820000000     0.838430000000     0.957400000000     0.0461701  
H597     H      0.608970000000     0.880400000000     0.932140000000     0.0466131  
H598     H      0.599840000000     0.842820000000     0.834000000000     0.0462547  
H599     H      0.042120000000     0.756200000000     0.879490000000     0.042631   
H600     H      0.652610000000     0.924990000000     0.911850000000     0.0428997  
H601     H      0.062160000000     0.832800000000     0.941150000000     0.0585043  
H602     H      0.633070000000     0.847640000000     0.850700000000     0.0586692  
H603     H      0.052850000000     0.794120000000     0.979300000000     0.0424633  
H604     H      0.616050000000     0.891500000000     0.830160000000     0.0310719  
H605     H      0.054520000000     0.804070000000     0.865200000000     0.0575217  
H606     H      0.640350000000     0.877190000000     0.926750000000     0.0577387  
H607     H      0.644130000000     0.886710000000     0.812760000000     0.0426755  
H608     H      0.074490000000     0.767900000000     0.903520000000     0.0312793  
H609     H      0.718610000000     0.877040000000     0.971270000000     0.057997   
H610     H      0.773930000000     0.853730000000     0.081050000000     0.0340061  
H611     H      0.802130000000     0.913890000000     0.919400000000     0.0434467  
H612     H      0.784750000000     0.921450000000     0.973570000000     0.0604185  
H613     H      0.799740000000     0.882360000000     0.032170000000     0.0465282  
H614     H      0.724670000000     0.836950000000     0.049370000000     0.0525401  
H615     H      0.738000000000     0.842550000000     0.927910000000     0.0307972  
H616     H      0.800870000000     0.888140000000     0.095560000000     0.0434082  
H617     H      0.803770000000     0.902970000000     0.981840000000     0.0462479  
H618     H      0.710680000000     0.858040000000     0.031450000000     0.0465221  
H619     H      0.789160000000     0.877100000000     0.929260000000     0.0309882  
H620     H      0.712260000000     0.860210000000     0.095100000000     0.0408255  
H621     H      0.714090000000     0.842240000000     0.979140000000     0.0456098  
H622     H      0.794360000000     0.911350000000     0.045210000000     0.0558857  
H623     H      0.732240000000     0.894190000000     0.074950000000     0.0406294  
H624     H      0.712570000000     0.853250000000     0.916460000000     0.0414954  
H625     H      0.778120000000     0.909250000000     0.696360000000     0.045935   
H626     H      0.705950000000     0.913810000000     0.611260000000     0.043705   
H627     H      0.799050000000     0.989960000000     0.724130000000     0.0315445  
H628     H      0.764970000000     0.980680000000     0.680890000000     0.0461409  
H629     H      0.737150000000     0.957390000000     0.637800000000     0.0467224  
H630     H      0.751410000000     0.890480000000     0.643090000000     0.0564124  
H631     H      0.783670000000     0.919390000000     0.759120000000     0.0433663  
H632     H      0.723500000000     0.938480000000     0.577080000000     0.0386326  
H633     H      0.735730000000     0.953160000000     0.705220000000     0.0578703  
H634     H      0.788610000000     0.917710000000     0.639320000000     0.0459937  
H635     H      0.768970000000     0.989500000000     0.744320000000     0.0436108  
H636     H      0.767320000000     0.893790000000     0.583470000000     0.0419605  
H637     H      0.745810000000     0.903210000000     0.716510000000     0.0590711  
H638     H      0.766900000000     0.965230000000     0.610290000000     0.0512627  
H639     H      0.781120000000     0.931430000000     0.582680000000     0.0325     
H640     H      0.807550000000     0.948830000000     0.732480000000     0.0317276  
H641     H      0.637540000000     0.836640000000     0.295390000000     0.0458792  
H642     H      0.711480000000     0.893910000000     0.395940000000     0.0360019  
H643     H      0.667540000000     0.913490000000     0.261060000000     0.0301854  
H644     H      0.676830000000     0.920930000000     0.319590000000     0.0453755  
H645     H      0.684200000000     0.914780000000     0.373290000000     0.0458057  
H646     H      0.641170000000     0.823340000000     0.347040000000     0.0463462  
H647     H      0.665290000000     0.846570000000     0.238260000000     0.0431279  
H648     H      0.695250000000     0.902940000000     0.430330000000     0.0438846  
H649     H      0.707900000000     0.916720000000     0.317870000000     0.0572606  
H650     H      0.627660000000     0.835870000000     0.380300000000     0.0555158  
H651     H      0.705690000000     0.935050000000     0.263280000000     0.0410721  
H652     H      0.685500000000     0.837880000000     0.378580000000     0.0361002  
H653     H      0.673930000000     0.843840000000     0.297410000000     0.057841   
H654     H      0.652710000000     0.889880000000     0.395370000000     0.0548013  
H655     H      0.654730000000     0.814250000000     0.403540000000     0.0453824  
H656     H      0.644760000000     0.863610000000     0.246430000000     0.0305286  
H657     H      0.787990000000     0.564090000000     0.189900000000     0.0463512  
H658     H      0.855810000000     0.023920000000     0.241570000000     0.0315138  
H659     H      0.767940000000     0.568710000000     0.286460000000     0.0307676  
H660     H      0.799320000000     0.551110000000     0.295080000000     0.0462448  
H661     H      0.830330000000     0.536760000000     0.279630000000     0.0466994  
H662     H      0.816990000000     0.547720000000     0.174620000000     0.0459444  
H663     H      0.788090000000     0.609490000000     0.204920000000     0.042655   
H664     H      0.831840000000     0.992420000000     0.265160000000     0.0434621  
H665     H      0.830620000000     0.584060000000     0.283240000000     0.0587412  
H666     H      0.785450000000     0.015410000000     0.187520000000     0.0582683  
H667     H      0.797380000000     0.594810000000     0.311440000000     0.0419038  
H668     H      0.847360000000     0.029070000000     0.181010000000     0.0308374  
H669     H      0.822230000000     0.593700000000     0.201660000000     0.0572072  
H670     H      0.796170000000     0.006510000000     0.268910000000     0.0585776  
H671     H      0.816360000000     0.002120000000     0.159080000000     0.0423626  
H672     H      0.762230000000     0.577470000000     0.226100000000     0.0314308  
H673     H      0.763170000000     0.753760000000     0.246010000000     0.046574   
H674     H      0.834390000000     0.864850000000     0.284540000000     0.032063   
H675     H      0.823870000000     0.765360000000     0.180120000000     0.0313048  
H676     H      0.845920000000     0.810290000000     0.206600000000     0.0465213  
H677     H      0.849390000000     0.844050000000     0.242550000000     0.0468766  
H678     H      0.766220000000     0.788150000000     0.279950000000     0.046534   
H679     H      0.773030000000     0.713050000000     0.242940000000     0.0436154  
H680     H      0.840280000000     0.885040000000     0.245690000000     0.0438588  
H681     H      0.851200000000     0.797300000000     0.247110000000     0.0581271  
H682     H      0.761040000000     0.799980000000     0.238580000000     0.0573291  
H683     H      0.855650000000     0.770050000000     0.200790000000     0.0423793  
H684     H      0.785960000000     0.832950000000     0.305480000000     0.0317771  
H685     H      0.788020000000     0.754720000000     0.277630000000     0.0575957  
H686     H      0.825510000000     0.843780000000     0.209910000000     0.0581461  
H687     H      0.755420000000     0.828350000000     0.281780000000     0.0426397  
H688     H      0.776540000000     0.732080000000     0.203710000000     0.0319044  
H689     H      0.919860000000     0.676860000000     0.107290000000     0.0459356  
H690     H      0.970490000000     0.749190000000     0.217410000000     0.0302523  
H691     H      0.907340000000     0.741790000000     0.074220000000     0.0338159  
H692     H      0.945110000000     0.766890000000     0.114420000000     0.0466342  
H693     H      0.963770000000     0.766500000000     0.165420000000     0.0462609  
H694     H      0.939480000000     0.682040000000     0.158780000000     0.0457448  
H695     H      0.913450000000     0.678840000000     0.044940000000     0.0431495  
H696     H      0.945430000000     0.760630000000     0.227770000000     0.0428441  
H697     H      0.969750000000     0.760230000000     0.091020000000     0.0571074  
H698     H      0.904960000000     0.678880000000     0.165520000000     0.0575936  
H699     H      0.938720000000     0.767440000000     0.051630000000     0.0439886  
H700     H      0.956030000000     0.699750000000     0.213620000000     0.0301298  
H701     H      0.952890000000     0.700360000000     0.086180000000     0.0571097  
H702     H      0.925750000000     0.751000000000     0.171480000000     0.0588581  
H703     H      0.919650000000     0.672530000000     0.220680000000     0.0410857  
H704     H      0.892470000000     0.689200000000     0.070430000000     0.0332847  
H705     H      0.952630000000     0.821520000000     0.816070000000     0.0462411  
H706     H      0.892010000000     0.721280000000     0.743670000000     0.0330422  
H707     H      0.887780000000     0.787790000000     0.880150000000     0.0302275  
H708     H      0.869610000000     0.759080000000     0.831590000000     0.0462644  
H709     H      0.868360000000     0.735580000000     0.783580000000     0.0463852  
H710     H      0.957200000000     0.801430000000     0.767930000000     0.0464798  
H711     H      0.965520000000     0.819340000000     0.879320000000     0.0410921  
H712     H      0.864680000000     0.724430000000     0.721220000000     0.0436119  
H713     H      0.887210000000     0.739030000000     0.840840000000     0.0591161  
H714     H      0.932370000000     0.808700000000     0.745910000000     0.0580056  
H715     H      0.879490000000     0.753290000000     0.895460000000     0.0422275  
H716     H      0.943680000000     0.759070000000     0.735940000000     0.0330593  
H717     H      0.958330000000     0.792620000000     0.828190000000     0.0590073  
H718     H      0.871990000000     0.764270000000     0.757110000000     0.0573557  
H719     H      0.952780000000     0.788090000000     0.706870000000     0.0431207  
H720     H      0.935870000000     0.824570000000     0.870410000000     0.030125   
H721     H      0.559720000000     0.829360000000     0.607980000000     0.0466735  
H722     H      0.986230000000     0.821300000000     0.503560000000     0.0308716  
H723     H      0.554870000000     0.759690000000     0.564610000000     0.0325783  
H724     H      0.527750000000     0.769240000000     0.525430000000     0.0462245  
H725     H      0.004370000000     0.790350000000     0.505380000000     0.0456435  
H726     H      0.536650000000     0.850290000000     0.585660000000     0.0466272  
H727     H      0.604930000000     0.827560000000     0.608240000000     0.0436578  
H728     H      0.955860000000     0.786640000000     0.510490000000     0.0411005  
H729     H      0.557900000000     0.801180000000     0.509090000000     0.0563684  
H730     H      0.008770000000     0.818660000000     0.605930000000     0.0585529  
H731     H      0.573630000000     0.768210000000     0.524260000000     0.0434865  
H732     H      0.005260000000     0.856190000000     0.549630000000     0.0311536  
H733     H      0.582080000000     0.845980000000     0.571000000000     0.0577749  
H734     H      0.983360000000     0.770960000000     0.542270000000     0.057725   
H735     H      0.989100000000     0.848300000000     0.591630000000     0.0433857  
H736     H      0.572560000000     0.794010000000     0.612670000000     0.0323639  
H737     H      0.815090000000     0.823740000000     0.528480000000     0.0468465  
H738     H      0.704500000000     0.746190000000     0.571700000000     0.0314884  
H739     H      0.832920000000     0.838620000000     0.629620000000     0.0304329  
H740     H      0.784630000000     0.803780000000     0.631230000000     0.0459937  
H741     H      0.741090000000     0.771830000000     0.611200000000     0.0464513  
H742     H      0.771860000000     0.789480000000     0.509190000000     0.0464534  
H743     H      0.862730000000     0.831230000000     0.547090000000     0.0424207  
H744     H      0.694710000000     0.769540000000     0.592720000000     0.0427848  
H745     H      0.790710000000     0.775510000000     0.617790000000     0.0582788  
H746     H      0.766540000000     0.818700000000     0.520620000000     0.0603147  
H747     H      0.831620000000     0.808460000000     0.650440000000     0.0422217  
H748     H      0.723090000000     0.755290000000     0.513430000000     0.0308026  
H749     H      0.815110000000     0.791420000000     0.538970000000     0.0582264  
H750     H      0.743310000000     0.805330000000     0.601600000000     0.0573656  
H751     H      0.725340000000     0.784360000000     0.488800000000     0.0427914  
H752     H      0.849590000000     0.850940000000     0.570370000000     0.0310863  
H753     H      0.799620000000     0.678090000000     0.490280000000     0.0460072  
H754     H      0.897680000000     0.734940000000     0.413690000000     0.0333353  
H755     H      0.842940000000     0.652010000000     0.544220000000     0.0297056  
H756     H      0.868860000000     0.667270000000     0.493090000000     0.0460318  
H757     H      0.888890000000     0.693870000000     0.445890000000     0.0462854  
H758     H      0.814530000000     0.705840000000     0.443280000000     0.0464525  
H759     H      0.804390000000     0.690820000000     0.555100000000     0.0408976  
H760     H      0.898610000000     0.709340000000     0.385220000000     0.0433052  
H761     H      0.886470000000     0.704360000000     0.504990000000     0.059658   
H762     H      0.811650000000     0.678010000000     0.415820000000     0.0578371  
H763     H      0.877250000000     0.680070000000     0.558060000000     0.0416669  
H764     H      0.854790000000     0.742070000000     0.412810000000     0.0334143  
H765     H      0.826080000000     0.713750000000     0.502790000000     0.0589669  
H766     H      0.860870000000     0.669890000000     0.417780000000     0.0574057  
H767     H      0.826090000000     0.721840000000     0.383260000000     0.0429709  
H768     H      0.802350000000     0.658090000000     0.542260000000     0.0297589  
N1       N      0.284730000000     0.524370000000     0.905700000000    -0.161241   
N2       N      0.414920000000     0.153940000000     0.891060000000    -0.161241   
N3       N      0.151810000000     0.406010000000     0.862910000000    -0.161899   
N4       N      0.544070000000     0.274870000000     0.929030000000    -0.162113   
N5       N      0.257470000000     0.379420000000     0.098950000000    -0.161443   
N6       N      0.256620000000     0.386380000000     0.916940000000    -0.161378   
N7       N      0.236020000000     0.407440000000     0.583380000000    -0.160683   
N8       N      0.274530000000     0.453570000000     0.754700000000    -0.161513   
N9       N      0.177020000000     0.358200000000     0.419670000000    -0.160446   
N10      N      0.189180000000     0.390950000000     0.251110000000    -0.161386   
N11      N      0.320630000000     0.493930000000     0.212330000000    -0.161675   
N12      N      0.296160000000     0.105460000000     0.258310000000    -0.162107   
N13      N      0.296430000000     0.357490000000     0.260050000000    -0.161505   
N14      N      0.315900000000     0.240720000000     0.225180000000    -0.161315   
N15      N      0.428210000000     0.215520000000     0.224180000000    -0.16165    
N16      N      0.427080000000     0.223540000000     0.045140000000    -0.161328   
N17      N      0.408020000000     0.257040000000     0.710940000000    -0.161429   
N18      N      0.423940000000     0.283200000000     0.887660000000    -0.162116   
N19      N      0.469910000000     0.314710000000     0.554220000000    -0.161356   
N20      N      0.092110000000     0.300050000000     0.563920000000    -0.161414   
N21      N      0.210130000000     0.280580000000     0.540770000000    -0.16194    
N22      N      0.347560000000     0.316670000000     0.598470000000    -0.162386   
N23      N      0.361790000000     0.214610000000     0.380930000000    -0.161926   
N24      N      0.343710000000     0.190230000000     0.556870000000    -0.162298   
N25      N      0.284730000000     0.024370000000     0.905700000000    -0.161291   
N26      N      0.414920000000     0.653940000000     0.891060000000    -0.161239   
N27      N      0.151810000000     0.906010000000     0.862910000000    -0.161882   
N28      N      0.544070000000     0.774870000000     0.929030000000    -0.162106   
N29      N      0.257470000000     0.879420000000     0.098950000000    -0.161442   
N30      N      0.256620000000     0.886380000000     0.916940000000    -0.161376   
N31      N      0.236020000000     0.907440000000     0.583380000000    -0.160682   
N32      N      0.274530000000     0.953570000000     0.754700000000    -0.161507   
N33      N      0.177020000000     0.858200000000     0.419670000000    -0.160446   
N34      N      0.189180000000     0.890950000000     0.251110000000    -0.161417   
N35      N      0.320630000000     0.993930000000     0.212330000000    -0.161522   
N36      N      0.296160000000     0.605460000000     0.258310000000    -0.162072   
N37      N      0.296430000000     0.857490000000     0.260050000000    -0.161508   
N38      N      0.315900000000     0.740720000000     0.225180000000    -0.16131    
N39      N      0.428210000000     0.715520000000     0.224180000000    -0.161649   
N40      N      0.427080000000     0.723540000000     0.045140000000    -0.161324   
N41      N      0.408020000000     0.757040000000     0.710940000000    -0.161391   
N42      N      0.423940000000     0.783200000000     0.887660000000    -0.162203   
N43      N      0.469910000000     0.814710000000     0.554220000000    -0.161354   
N44      N      0.092110000000     0.800050000000     0.563920000000    -0.161416   
N45      N      0.210130000000     0.780580000000     0.540770000000    -0.161937   
N46      N      0.347560000000     0.816670000000     0.598470000000    -0.162391   
N47      N      0.361790000000     0.714610000000     0.380940000000    -0.161871   
N48      N      0.343710000000     0.690230000000     0.556870000000    -0.162297   
N49      N      0.784730000000     0.524370000000     0.905700000000    -0.16124    
N50      N      0.914920000000     0.153940000000     0.891060000000    -0.161239   
N51      N      0.651810000000     0.406010000000     0.862910000000    -0.161895   
N52      N      0.044070000000     0.274870000000     0.929030000000    -0.162094   
N53      N      0.757470000000     0.379420000000     0.098950000000    -0.161442   
N54      N      0.756620000000     0.386380000000     0.916940000000    -0.161407   
N55      N      0.736020000000     0.407440000000     0.583380000000    -0.160678   
N56      N      0.774530000000     0.453570000000     0.754700000000    -0.161516   
N57      N      0.677020000000     0.358200000000     0.419670000000    -0.16045    
N58      N      0.689180000000     0.390950000000     0.251110000000    -0.161383   
N59      N      0.820630000000     0.493930000000     0.212330000000    -0.161673   
N60      N      0.796160000000     0.105460000000     0.258310000000    -0.162106   
N61      N      0.796430000000     0.357490000000     0.260050000000    -0.161506   
N62      N      0.815900000000     0.240720000000     0.225180000000    -0.161314   
N63      N      0.928210000000     0.215520000000     0.224180000000    -0.161645   
N64      N      0.927080000000     0.223540000000     0.045140000000    -0.161325   
N65      N      0.908020000000     0.257040000000     0.710940000000    -0.161425   
N66      N      0.923940000000     0.283200000000     0.887660000000    -0.162156   
N67      N      0.969910000000     0.314710000000     0.554220000000    -0.161362   
N68      N      0.592110000000     0.300050000000     0.563920000000    -0.161409   
N69      N      0.710130000000     0.280580000000     0.540770000000    -0.161884   
N70      N      0.847560000000     0.316670000000     0.598470000000    -0.162393   
N71      N      0.861790000000     0.214610000000     0.380930000000    -0.161926   
N72      N      0.843710000000     0.190230000000     0.556870000000    -0.162296   
N73      N      0.784730000000     0.024370000000     0.905700000000    -0.161321   
N74      N      0.914920000000     0.653940000000     0.891060000000    -0.161234   
N75      N      0.651810000000     0.906010000000     0.862910000000    -0.161883   
N76      N      0.044070000000     0.774870000000     0.929030000000    -0.162093   
N77      N      0.757470000000     0.879420000000     0.098950000000    -0.161446   
N78      N      0.756620000000     0.886380000000     0.916940000000    -0.161375   
N79      N      0.736020000000     0.907440000000     0.583380000000    -0.160677   
N80      N      0.774530000000     0.953570000000     0.754700000000    -0.16151    
N81      N      0.677020000000     0.858200000000     0.419670000000    -0.16045    
N82      N      0.689180000000     0.890950000000     0.251110000000    -0.161432   
N83      N      0.820630000000     0.993930000000     0.212330000000    -0.161521   
N84      N      0.796160000000     0.605460000000     0.258310000000    -0.162071   
N85      N      0.796430000000     0.857490000000     0.260050000000    -0.161506   
N86      N      0.815900000000     0.740720000000     0.225180000000    -0.16131    
N87      N      0.928210000000     0.715520000000     0.224180000000    -0.161645   
N88      N      0.927080000000     0.723540000000     0.045140000000    -0.161319   
N89      N      0.908020000000     0.757040000000     0.710940000000    -0.161388   
N90      N      0.923940000000     0.783200000000     0.887660000000    -0.162113   
N91      N      0.969910000000     0.814710000000     0.554220000000    -0.16136    
N92      N      0.592110000000     0.800050000000     0.563920000000    -0.161408   
N93      N      0.710130000000     0.780580000000     0.540770000000    -0.161882   
N94      N      0.847560000000     0.816670000000     0.598470000000    -0.162389   
N95      N      0.861790000000     0.714610000000     0.380940000000    -0.161875   
N96      N      0.843710000000     0.690230000000     0.556870000000    -0.162295   
O1       O      0.439940000000     0.309560000000     0.599190000000    -0.248562   
O2       O      0.383820000000     0.224280000000     0.584780000000    -0.253158   
O3       O      0.376380000000     0.300330000000     0.577200000000    -0.257466   
O4       O      0.377810000000     0.246370000000     0.664500000000    -0.254004   
O5       O      0.421480000000     0.279240000000     0.658270000000    -0.252743   
O6       O      0.361700000000     0.289690000000     0.629420000000    -0.256165   
O7       O      0.423760000000     0.277770000000     0.559280000000    -0.252625   
O8       O      0.347790000000     0.230740000000     0.580990000000    -0.257303   
O9       O      0.352760000000     0.232710000000     0.238120000000    -0.251651   
O10      O      0.384300000000     0.183120000000     0.246130000000    -0.255722   
O11      O      0.318970000000     0.151760000000     0.239170000000    -0.254049   
O12      O      0.338330000000     0.208120000000     0.329370000000    -0.256535   
O13      O      0.374840000000     0.202460000000     0.330040000000    -0.255908   
O14      O      0.323770000000     0.144240000000     0.292530000000    -0.256799   
O15      O      0.311210000000     0.203450000000     0.258320000000    -0.25113    
O16      O      0.398220000000     0.227560000000     0.252070000000    -0.248282   
O17      O      0.183960000000     0.301130000000     0.558490000000    -0.255254   
O18      O      0.223590000000     0.367050000000     0.551710000000    -0.255779   
O19      O      0.124890000000     0.301770000000     0.524710000000    -0.2548     
O20      O      0.166310000000     0.325820000000     0.463400000000    -0.250374   
O21      O      0.187020000000     0.369960000000     0.477130000000    -0.255344   
O22      O      0.140320000000     0.331760000000     0.566360000000    -0.252286   
O23      O      0.202200000000     0.310990000000     0.507630000000    -0.252376   
O24      O      0.192940000000     0.381200000000     0.555660000000    -0.246403   
O25      O      0.299400000000     0.448660000000     0.234620000000    -0.251299   
O26      O      0.215470000000     0.375300000000     0.221170000000    -0.248276   
O27      O      0.260660000000     0.365860000000     0.242550000000    -0.254564   
O28      O      0.281360000000     0.391620000000     0.150780000000    -0.255815   
O29      O      0.241370000000     0.390930000000     0.147890000000    -0.253626   
O30      O      0.303300000000     0.394680000000     0.225250000000    -0.251298   
O31      O      0.290850000000     0.453530000000     0.181620000000    -0.255143   
O32      O      0.235990000000     0.419540000000     0.234990000000    -0.255776   
O33      O      0.192910000000     0.414930000000     0.834710000000    -0.254918   
O34      O      0.227420000000     0.398150000000     0.886780000000    -0.255699   
O35      O      0.253670000000     0.493030000000     0.865450000000    -0.250734   
O36      O      0.255010000000     0.465730000000     0.799660000000    -0.253978   
O37      O      0.262710000000     0.431040000000     0.807420000000    -0.255516   
O38      O      0.274180000000     0.477970000000     0.900080000000    -0.252069   
O39      O      0.197130000000     0.434500000000     0.884190000000    -0.255152   
O40      O      0.272490000000     0.428320000000     0.887200000000    -0.246818   
O41      O      0.444220000000     0.185510000000     0.932380000000    -0.249191   
O42      O      0.416510000000     0.244340000000     0.919440000000    -0.251671   
O43      O      0.503630000000     0.264100000000     0.960020000000    -0.255838   
O44      O      0.434350000000     0.207030000000     0.993710000000    -0.253811   
O45      O      0.445580000000     0.250870000000     0.996360000000    -0.253859   
O46      O      0.498240000000     0.245780000000     0.909600000000    -0.256047   
O47      O      0.423950000000     0.199870000000     0.896260000000    -0.253264   
O48      O      0.459870000000     0.276590000000     0.908910000000    -0.256897   
O49      O      0.439940000000     0.809560000000     0.599190000000    -0.24856    
O50      O      0.383820000000     0.724280000000     0.584780000000    -0.25316    
O51      O      0.376380000000     0.800330000000     0.577200000000    -0.257463   
O52      O      0.377800000000     0.746370000000     0.664500000000    -0.253867   
O53      O      0.421480000000     0.779240000000     0.658270000000    -0.252696   
O54      O      0.361700000000     0.789690000000     0.629420000000    -0.256159   
O55      O      0.423760000000     0.777770000000     0.559280000000    -0.252624   
O56      O      0.347790000000     0.730740000000     0.580990000000    -0.257302   
O57      O      0.352760000000     0.732710000000     0.238120000000    -0.251649   
O58      O      0.384300000000     0.683120000000     0.246130000000    -0.255724   
O59      O      0.318970000000     0.651760000000     0.239170000000    -0.254009   
O60      O      0.338330000000     0.708120000000     0.329370000000    -0.256508   
O61      O      0.374840000000     0.702460000000     0.330040000000    -0.255881   
O62      O      0.323770000000     0.644240000000     0.292540000000    -0.256681   
O63      O      0.311210000000     0.703450000000     0.258320000000    -0.251128   
O64      O      0.398220000000     0.727560000000     0.252070000000    -0.248281   
O65      O      0.183960000000     0.801130000000     0.558490000000    -0.255266   
O66      O      0.223590000000     0.867050000000     0.551710000000    -0.255785   
O67      O      0.124890000000     0.801770000000     0.524710000000    -0.254798   
O68      O      0.166310000000     0.825820000000     0.463400000000    -0.25035    
O69      O      0.187020000000     0.869960000000     0.477130000000    -0.255321   
O70      O      0.140320000000     0.831760000000     0.566360000000    -0.252299   
O71      O      0.202200000000     0.810990000000     0.507630000000    -0.252367   
O72      O      0.192940000000     0.881200000000     0.555660000000    -0.246408   
O73      O      0.299400000000     0.948660000000     0.234620000000    -0.251271   
O74      O      0.215470000000     0.875300000000     0.221170000000    -0.248301   
O75      O      0.260660000000     0.865860000000     0.242550000000    -0.25456    
O76      O      0.281360000000     0.891620000000     0.150780000000    -0.255809   
O77      O      0.241370000000     0.890930000000     0.147890000000    -0.253617   
O78      O      0.303300000000     0.894680000000     0.225250000000    -0.251289   
O79      O      0.290850000000     0.953530000000     0.181620000000    -0.255099   
O80      O      0.235990000000     0.919530000000     0.234990000000    -0.255864   
O81      O      0.192910000000     0.914930000000     0.834710000000    -0.254913   
O82      O      0.227420000000     0.898150000000     0.886780000000    -0.255697   
O83      O      0.253670000000     0.993030000000     0.865450000000    -0.250684   
O84      O      0.255010000000     0.965730000000     0.799660000000    -0.253957   
O85      O      0.262710000000     0.931040000000     0.807420000000    -0.255508   
O86      O      0.274190000000     0.977970000000     0.900080000000    -0.25195    
O87      O      0.197130000000     0.934500000000     0.884190000000    -0.255142   
O88      O      0.272490000000     0.928320000000     0.887200000000    -0.246802   
O89      O      0.444220000000     0.685510000000     0.932380000000    -0.249188   
O90      O      0.416510000000     0.744340000000     0.919440000000    -0.251728   
O91      O      0.503630000000     0.764100000000     0.960020000000    -0.255839   
O92      O      0.434350000000     0.707030000000     0.993710000000    -0.253809   
O93      O      0.445580000000     0.750870000000     0.996360000000    -0.253855   
O94      O      0.498240000000     0.745780000000     0.909600000000    -0.256049   
O95      O      0.423950000000     0.699870000000     0.896260000000    -0.25326    
O96      O      0.459860000000     0.776590000000     0.908910000000    -0.256918   
O97      O      0.939940000000     0.309560000000     0.599190000000    -0.248543   
O98      O      0.883820000000     0.224280000000     0.584780000000    -0.253148   
O99      O      0.876380000000     0.300330000000     0.577200000000    -0.25746    
O100     O      0.877810000000     0.246370000000     0.664500000000    -0.254      
O101     O      0.921480000000     0.279240000000     0.658270000000    -0.252726   
O102     O      0.861700000000     0.289690000000     0.629420000000    -0.256162   
O103     O      0.923760000000     0.277770000000     0.559280000000    -0.252618   
O104     O      0.847790000000     0.230740000000     0.580990000000    -0.257302   
O105     O      0.852760000000     0.232710000000     0.238120000000    -0.251648   
O106     O      0.884300000000     0.183120000000     0.246130000000    -0.255722   
O107     O      0.818970000000     0.151760000000     0.239170000000    -0.254048   
O108     O      0.838330000000     0.208120000000     0.329370000000    -0.256533   
O109     O      0.874840000000     0.202460000000     0.330040000000    -0.255899   
O110     O      0.823770000000     0.144240000000     0.292530000000    -0.256797   
O111     O      0.811210000000     0.203450000000     0.258320000000    -0.251128   
O112     O      0.898220000000     0.227560000000     0.252070000000    -0.248274   
O113     O      0.683960000000     0.301130000000     0.558490000000    -0.255362   
O114     O      0.723590000000     0.367050000000     0.551710000000    -0.255774   
O115     O      0.624890000000     0.301770000000     0.524710000000    -0.254794   
O116     O      0.666310000000     0.325820000000     0.463400000000    -0.25037    
O117     O      0.687020000000     0.369960000000     0.477130000000    -0.255341   
O118     O      0.640320000000     0.331760000000     0.566360000000    -0.25228    
O119     O      0.702200000000     0.310990000000     0.507630000000    -0.252419   
O120     O      0.692940000000     0.381200000000     0.555660000000    -0.246398   
O121     O      0.799400000000     0.448660000000     0.234620000000    -0.251296   
O122     O      0.715470000000     0.375300000000     0.221170000000    -0.248272   
O123     O      0.760660000000     0.365860000000     0.242550000000    -0.254563   
O124     O      0.781360000000     0.391620000000     0.150780000000    -0.255812   
O125     O      0.741370000000     0.390930000000     0.147890000000    -0.253622   
O126     O      0.803300000000     0.394680000000     0.225250000000    -0.251294   
O127     O      0.790850000000     0.453530000000     0.181620000000    -0.25514    
O128     O      0.735990000000     0.419540000000     0.234990000000    -0.255775   
O129     O      0.692910000000     0.414930000000     0.834710000000    -0.254919   
O130     O      0.727420000000     0.398150000000     0.886780000000    -0.2557     
O131     O      0.753670000000     0.493030000000     0.865450000000    -0.250732   
O132     O      0.755010000000     0.465730000000     0.799660000000    -0.253977   
O133     O      0.762710000000     0.431040000000     0.807420000000    -0.255514   
O134     O      0.774180000000     0.477970000000     0.900080000000    -0.252067   
O135     O      0.697130000000     0.434500000000     0.884190000000    -0.255149   
O136     O      0.772490000000     0.428320000000     0.887200000000    -0.246819   
O137     O      0.944220000000     0.185510000000     0.932380000000    -0.24917    
O138     O      0.916510000000     0.244340000000     0.919440000000    -0.251664   
O139     O      0.003630000000     0.264100000000     0.960020000000    -0.255896   
O140     O      0.934350000000     0.207030000000     0.993710000000    -0.253797   
O141     O      0.945580000000     0.250870000000     0.996360000000    -0.253833   
O142     O      0.998240000000     0.245780000000     0.909600000000    -0.255861   
O143     O      0.923950000000     0.199870000000     0.896260000000    -0.253258   
O144     O      0.959870000000     0.276590000000     0.908910000000    -0.25672    
O145     O      0.939940000000     0.809560000000     0.599190000000    -0.248542   
O146     O      0.883820000000     0.724280000000     0.584780000000    -0.25315    
O147     O      0.876380000000     0.800330000000     0.577200000000    -0.257457   
O148     O      0.877800000000     0.746370000000     0.664500000000    -0.253863   
O149     O      0.921480000000     0.779240000000     0.658270000000    -0.252678   
O150     O      0.861700000000     0.789690000000     0.629420000000    -0.256155   
O151     O      0.923760000000     0.777770000000     0.559280000000    -0.252617   
O152     O      0.847790000000     0.730740000000     0.580990000000    -0.2573     
O153     O      0.852760000000     0.732710000000     0.238120000000    -0.251646   
O154     O      0.884300000000     0.683120000000     0.246130000000    -0.255723   
O155     O      0.818970000000     0.651760000000     0.239170000000    -0.254008   
O156     O      0.838330000000     0.708120000000     0.329370000000    -0.256506   
O157     O      0.874840000000     0.702460000000     0.330040000000    -0.255873   
O158     O      0.823770000000     0.644240000000     0.292540000000    -0.256679   
O159     O      0.811210000000     0.703450000000     0.258320000000    -0.251126   
O160     O      0.898220000000     0.727560000000     0.252070000000    -0.248273   
O161     O      0.683960000000     0.801130000000     0.558490000000    -0.255374   
O162     O      0.723590000000     0.867050000000     0.551710000000    -0.25578    
O163     O      0.624890000000     0.801770000000     0.524710000000    -0.254791   
O164     O      0.666310000000     0.825820000000     0.463400000000    -0.250346   
O165     O      0.687020000000     0.869960000000     0.477130000000    -0.255318   
O166     O      0.640320000000     0.831760000000     0.566360000000    -0.252293   
O167     O      0.702200000000     0.810990000000     0.507630000000    -0.252409   
O168     O      0.692940000000     0.881200000000     0.555660000000    -0.246404   
O169     O      0.799400000000     0.948660000000     0.234620000000    -0.251269   
O170     O      0.715470000000     0.875300000000     0.221170000000    -0.248298   
O171     O      0.760660000000     0.865860000000     0.242550000000    -0.254558   
O172     O      0.781360000000     0.891620000000     0.150780000000    -0.255806   
O173     O      0.741370000000     0.890930000000     0.147890000000    -0.253614   
O174     O      0.803300000000     0.894680000000     0.225250000000    -0.251285   
O175     O      0.790850000000     0.953530000000     0.181620000000    -0.255097   
O176     O      0.735990000000     0.919530000000     0.234990000000    -0.255865   
O177     O      0.692910000000     0.914930000000     0.834710000000    -0.254914   
O178     O      0.727420000000     0.898150000000     0.886780000000    -0.255695   
O179     O      0.753670000000     0.993030000000     0.865450000000    -0.250714   
O180     O      0.755010000000     0.965730000000     0.799660000000    -0.253957   
O181     O      0.762710000000     0.931040000000     0.807420000000    -0.255508   
O182     O      0.774180000000     0.977970000000     0.900080000000    -0.252055   
O183     O      0.697130000000     0.934500000000     0.884190000000    -0.255134   
O184     O      0.772490000000     0.928320000000     0.887200000000    -0.246801   
O185     O      0.944220000000     0.685510000000     0.932380000000    -0.249168   
O186     O      0.916510000000     0.744340000000     0.919440000000    -0.251666   
O187     O      0.003630000000     0.764100000000     0.960020000000    -0.255892   
O188     O      0.934350000000     0.707030000000     0.993710000000    -0.253794   
O189     O      0.945580000000     0.750870000000     0.996360000000    -0.25383    
O190     O      0.998240000000     0.745780000000     0.909600000000    -0.255858   
O191     O      0.923950000000     0.699870000000     0.896260000000    -0.25326    
O192     O      0.959870000000     0.776590000000     0.908910000000    -0.25686    


