data_structure

_audit_creation_method RASPA-1.0
_audit_creation_date 2023-5-22
_audit_author_name 'Poobodin Mano'

_cell_length_a    28.9926
_cell_length_b    37.9221
_cell_length_c    33.478
_cell_angle_alpha 90
_cell_angle_beta  90
_cell_angle_gamma 90
_cell_volume      36807.7

_symmetry_cell_setting          triclinic
_symmetry_space_group_name_Hall 'P 1'
_symmetry_space_group_name_H-M  'P 1'
_symmetry_Int_Tables_number     1

_symmetry_equiv_pos_as_xyz 'x,y,z'

loop_
_atom_site_label
_atom_site_type_symbol
_atom_site_fract_x
_atom_site_fract_y
_atom_site_fract_z
_atom_site_charge
C1       C      0.048750000000     0.415450000000     0.928770000000     0.34079    
C2       C      0.942200000000     0.391430000000     0.830240000000     0.341493   
C3       C      0.043440000000     0.305930000000     0.845120000000     0.340696   
C4       C      0.952090000000     0.322250000000     0.956930000000     0.342027   
C5       C      0.177580000000     0.629700000000     0.230480000000     0.34236    
C6       C      0.280840000000     0.536410000000     0.263590000000     0.343594   
C7       C      0.184840000000     0.524900000000     0.153480000000     0.342697   
C8       C      0.305870000000     0.608380000000     0.148720000000     0.342496   
C9       C      0.538570000000     0.834520000000     0.931570000000     0.339856   
C10      C      0.397840000000     0.769170000000     0.948580000000     0.339847   
C11      C      0.412770000000     0.858420000000     0.851370000000     0.342307   
C12      C      0.493710000000     0.743850000000     0.844950000000     0.344468   
C13      C      0.768070000000     0.132810000000     0.013000000000     0.345198   
C14      C      0.658880000000     0.043130000000     0.041870000000     0.342826   
C15      C      0.788140000000     0.058260000000     0.125350000000     0.342547   
C16      C      0.669170000000     0.144550000000     0.121750000000     0.341858   
C17      C      0.438720000000     0.333550000000     0.352660000000     0.341019   
C18      C      0.530420000000     0.236250000000     0.356600000000     0.340617   
C19      C      0.526060000000     0.321230000000     0.471020000000     0.340888   
C20      C      0.422450000000     0.237180000000     0.454740000000     0.341769   
C21      C      0.765590000000     0.543990000000     0.658010000000     0.339466   
C22      C      0.673890000000     0.643590000000     0.639990000000     0.341398   
C23      C      0.773320000000     0.621210000000     0.539440000000     0.341456   
C24      C      0.666450000000     0.532360000000     0.556790000000     0.34184    
C25      C      0.018820000000     0.824350000000     0.356510000000     0.340663   
C26      C      0.892970000000     0.831560000000     0.442180000000     0.343556   
C27      C      0.003630000000     0.923790000000     0.439450000000     0.342353   
C28      C      0.895580000000     0.909840000000     0.336270000000     0.342679   
C29      C      0.165580000000     0.098730000000     0.749850000000     0.341342   
C30      C      0.238950000000     0.007050000000     0.685030000000     0.341613   
C31      C      0.155840000000     0.082160000000     0.602400000000     0.341381   
C32      C      0.274250000000     0.136010000000     0.667560000000     0.343592   
C33      C      0.152170000000     0.080630000000     0.528400000000     0.0104693  
C34      C      0.007020000000     0.961160000000     0.499870000000     0.00916583 
C35      C      0.076020000000     0.955570000000     0.455320000000     0.00860902 
C36      C      0.012070000000     0.001240000000     0.501200000000    -0.0999358  
C37      C      0.133890000000     0.047590000000     0.507330000000    -0.0985286  
C38      C      0.083990000000     0.995500000000     0.456720000000    -0.0997941  
C39      C      0.082880000000     0.039070000000     0.514770000000     0.0194946  
C40      C      0.061830000000     0.012470000000     0.493440000000     0.0193294  
C41      C      0.080890000000     0.088550000000     0.567630000000     0.010916   
C42      C      0.058300000000     0.055290000000     0.550910000000    -0.0987026  
C43      C      0.817480000000     0.802710000000     0.454270000000     0.0102986  
C44      C      0.848290000000     0.646130000000     0.518230000000     0.0106644  
C45      C      0.780590000000     0.650950000000     0.473780000000     0.010258   
C46      C      0.853610000000     0.686020000000     0.522260000000    -0.0989477  
C47      C      0.813580000000     0.762580000000     0.450400000000    -0.098961   
C48      C      0.782760000000     0.691300000000     0.473100000000    -0.0986959  
C49      C      0.838110000000     0.741880000000     0.483590000000     0.0193903  
C50      C      0.827170000000     0.707080000000     0.490560000000     0.019118   
C51      C      0.879510000000     0.798440000000     0.504790000000     0.0110288  
C52      C      0.881160000000     0.758240000000     0.502640000000    -0.0992339  
C53      C      0.413580000000     0.182810000000     0.495100000000     0.00997031 
C54      C      0.290530000000     0.198370000000     0.651230000000     0.0115617  
C55      C      0.354790000000     0.156670000000     0.660040000000     0.0109988  
C56      C      0.300450000000     0.204180000000     0.606880000000    -0.0988861  
C57      C      0.410270000000     0.185070000000     0.540640000000    -0.0992414  
C58      C      0.370480000000     0.159990000000     0.616500000000    -0.0987669  
C59      C      0.363380000000     0.198500000000     0.555320000000     0.0192339  
C60      C      0.346990000000     0.189560000000     0.592590000000     0.0198208  
C61      C      0.347020000000     0.223080000000     0.485670000000     0.0100208  
C62      C      0.340380000000     0.227710000000     0.530700000000    -0.0992433  
C63      C      0.598350000000     0.338970000000     0.504960000000     0.0106248  
C64      C      0.591990000000     0.504160000000     0.539120000000     0.00933823 
C65      C      0.664540000000     0.484630000000     0.506400000000     0.00982239 
C66      C      0.578860000000     0.466230000000     0.550090000000    -0.0990585  
C67      C      0.615960000000     0.376610000000     0.499320000000    -0.0988106  
C68      C      0.656140000000     0.446050000000     0.517260000000    -0.0991885  
C69      C      0.587700000000     0.404760000000     0.521290000000     0.0190461  
C70      C      0.605550000000     0.438110000000     0.526680000000     0.0188138  
C71      C      0.523220000000     0.358590000000     0.531790000000     0.0102264  
C72      C      0.536470000000     0.397640000000     0.529460000000    -0.0986301  
C73      C      0.840420000000     0.058500000000     0.183870000000     0.0101029  
C74      C      0.849240000000     0.910650000000     0.274030000000     0.00990497 
C75      C      0.847290000000     0.961790000000     0.320250000000     0.0100003  
C76      C      0.859440000000     0.934160000000     0.237910000000    -0.0991436  
C77      C      0.832540000000     0.035060000000     0.220380000000    -0.098887   
C78      C      0.858150000000     0.987970000000     0.286850000000    -0.0991785  
C79      C      0.842080000000     0.995840000000     0.213110000000     0.0189138  
C80      C      0.849470000000     0.973370000000     0.244880000000     0.0189957  
C81      C      0.840540000000     0.007680000000     0.137380000000     0.0100418  
C82      C      0.833140000000     0.981100000000     0.171190000000    -0.0989242  
C83      C      0.594080000000     0.166730000000     0.146700000000     0.010295   
C84      C      0.604780000000     0.215340000000     0.328760000000     0.00973308 
C85      C      0.532310000000     0.183730000000     0.312600000000     0.00995733 
C86      C      0.617450000000     0.219800000000     0.284670000000    -0.0989297  
C87      C      0.580520000000     0.163560000000     0.190710000000    -0.098958   
C88      C      0.540810000000     0.186300000000     0.267600000000    -0.0990565  
C89      C      0.607330000000     0.188080000000     0.218760000000     0.0191186  
C90      C      0.590620000000     0.195510000000     0.256410000000     0.018938   
C91      C      0.665990000000     0.199060000000     0.162520000000     0.0104356  
C92      C      0.657030000000     0.197650000000     0.207520000000    -0.0990212  
C93      C      0.414040000000     0.906930000000     0.801840000000     0.00957577 
C94      C      0.227330000000     0.947460000000     0.713680000000     0.0105027  
C95      C      0.296450000000     0.959820000000     0.672970000000     0.0104876  
C96      C      0.255490000000     0.937570000000     0.750650000000    -0.0986375  
C97      C      0.385200000000     0.907910000000     0.763590000000    -0.0993849  
C98      C      0.329550000000     0.949740000000     0.706750000000    -0.0985933  
C99      C      0.334040000000     0.915340000000     0.771210000000     0.0193638  
C100     C      0.306970000000     0.931460000000     0.742680000000     0.0194142  
C101     C      0.344630000000     0.897350000000     0.844170000000     0.00949008 
C102     C      0.312600000000     0.897560000000     0.807830000000    -0.0994043  
C103     C      0.608270000000     0.685010000000     0.648430000000     0.00973874 
C104     C      0.552550000000     0.697850000000     0.832190000000     0.010659   
C105     C      0.485220000000     0.703380000000     0.787150000000     0.0102337  
C106     C      0.587150000000     0.703110000000     0.798300000000    -0.0991217  
C107     C      0.574380000000     0.681700000000     0.683430000000    -0.0987116  
C108     C      0.515830000000     0.706840000000     0.750010000000    -0.0990122  
C109     C      0.594990000000     0.690030000000     0.724600000000     0.0192156  
C110     C      0.566630000000     0.697160000000     0.756660000000     0.0193323  
C111     C      0.675630000000     0.688430000000     0.693710000000     0.0105652  
C112     C      0.646410000000     0.682780000000     0.731090000000    -0.0990157  
C113     C      0.622500000000     0.015700000000     0.982560000000     0.01029    
C114     C      0.581400000000     0.850930000000     0.993010000000     0.0104612  
C115     C      0.610500000000     0.869490000000     0.926930000000     0.0107423  
C116     C      0.578610000000     0.888970000000     0.008320000000    -0.0989298  
C117     C      0.633560000000     0.977960000000     0.969690000000    -0.0993282  
C118     C      0.607740000000     0.908710000000     0.937080000000    -0.0989053  
C119     C      0.611020000000     0.949920000000     0.996220000000     0.0193597  
C120     C      0.602490000000     0.916490000000     0.981790000000     0.019205   
C121     C      0.599260000000     0.996840000000     0.050620000000     0.00994012 
C122     C      0.607770000000     0.957880000000     0.041020000000    -0.0993227  
C123     C      0.135430000000     0.655320000000     0.287840000000     0.00882006 
C124     C      0.073790000000     0.809290000000     0.302360000000     0.00776619 
C125     C      0.064300000000     0.769350000000     0.361820000000     0.00873598 
C126     C      0.073390000000     0.777300000000     0.274050000000    -0.100336   
C127     C      0.141980000000     0.692200000000     0.305110000000    -0.100819   
C128     C      0.060140000000     0.737410000000     0.334380000000    -0.100579   
C129     C      0.116210000000     0.719100000000     0.279960000000     0.0198378  
C130     C      0.086800000000     0.743640000000     0.295940000000     0.0196874  
C131     C      0.126340000000     0.681030000000     0.218870000000     0.00780152 
C132     C      0.129460000000     0.718610000000     0.235990000000    -0.100475   
C133     C      0.340470000000     0.722680000000     0.963930000000     0.0101201  
C134     C      0.364520000000     0.654910000000     0.137000000000     0.0100183  
C135     C      0.348380000000     0.610610000000     0.084560000000     0.0103708  
C136     C      0.354480000000     0.685840000000     0.108860000000    -0.0987678  
C137     C      0.352950000000     0.691730000000     0.991110000000    -0.0988343  
C138     C      0.336140000000     0.638660000000     0.053530000000    -0.0989542  
C139     C      0.356090000000     0.701540000000     0.035430000000     0.0189344  
C140     C      0.352350000000     0.675900000000     0.064480000000     0.0191312  
C141     C      0.360780000000     0.767010000000     0.015340000000     0.00980339 
C142     C      0.373340000000     0.738610000000     0.046030000000    -0.0988668  
C143     C      0.275750000000     0.491240000000     0.316870000000     0.0107755  
C144     C      0.446080000000     0.385230000000     0.307660000000     0.00954645 
C145     C      0.370860000000     0.354730000000     0.314590000000     0.0099589  
C146     C      0.424940000000     0.421210000000     0.317600000000    -0.0988799  
C147     C      0.296400000000     0.454780000000     0.309200000000    -0.0990962  
C148     C      0.345810000000     0.388700000000     0.326160000000    -0.0990376  
C149     C      0.349240000000     0.453890000000     0.310270000000     0.0192159  
C150     C      0.372170000000     0.422270000000     0.314880000000     0.0190318  
C151     C      0.349670000000     0.521860000000     0.304490000000     0.00999937 
C152     C      0.375640000000     0.487160000000     0.297660000000    -0.0987158  
C153     C      0.170480000000     0.125780000000     0.817040000000     0.0106799  
C154     C      0.039810000000     0.258540000000     0.794340000000     0.00981473 
C155     C      0.114820000000     0.274290000000     0.825450000000     0.00933701 
C156     C      0.044550000000     0.219800000000     0.806180000000    -0.0991285  
C157     C      0.159920000000     0.165370000000     0.817760000000    -0.0985164  
C158     C      0.123880000000     0.236020000000     0.837930000000    -0.0990937  
C159     C      0.109500000000     0.175140000000     0.809010000000     0.0196076  
C160     C      0.094520000000     0.209230000000     0.814920000000     0.0190611  
C161     C      0.094700000000     0.110450000000     0.788780000000     0.0112933  
C162     C      0.078670000000     0.148810000000     0.786620000000    -0.0987338  
C163     C      0.770210000000     0.183160000000     0.965970000000     0.0108597  
C164     C      0.950870000000     0.272920000000     0.005320000000     0.0100435  
C165     C      0.881780000000     0.310070000000     0.996540000000     0.0108746  
C166     C      0.926560000000     0.239660000000     0.990240000000    -0.0982115  
C167     C      0.794270000000     0.216230000000     0.981850000000    -0.0988414  
C168     C      0.852570000000     0.279460000000     0.980800000000    -0.0988303  
C169     C      0.846980000000     0.213060000000     0.984370000000     0.0194903  
C170     C      0.873840000000     0.242880000000     0.987750000000     0.0193954  
C171     C      0.839280000000     0.145970000000     0.975000000000     0.0107298  
C172     C      0.868150000000     0.176480000000     0.991430000000    -0.0987677  
C173     C      0.867490000000     0.396510000000     0.794820000000     0.00803617 
C174     C      0.839490000000     0.523390000000     0.686480000000     0.00842645 
C175     C      0.764100000000     0.509220000000     0.720650000000     0.00738221 
C176     C      0.855050000000     0.485280000000     0.691720000000    -0.100603   
C177     C      0.837030000000     0.429300000000     0.789230000000    -0.100673   
C178     C      0.780850000000     0.471450000000     0.729050000000    -0.100494   
C179     C      0.858290000000     0.454420000000     0.758990000000     0.0200705  
C180     C      0.833260000000     0.469840000000     0.729020000000     0.019755   
C181     C      0.937170000000     0.429980000000     0.770730000000     0.00904339 
C182     C      0.908430000000     0.463550000000     0.767360000000    -0.100869   
C183     C      0.110060000000     0.504200000000     0.126210000000     0.0100502  
C184     C      0.123500000000     0.441060000000     0.950040000000     0.00995564 
C185     C      0.051090000000     0.473970000000     0.961770000000     0.0102723  
C186     C      0.136600000000     0.441420000000     0.994310000000    -0.0984999  
C187     C      0.098920000000     0.505330000000     0.081530000000    -0.0991043  
C188     C      0.059930000000     0.476930000000     0.006720000000    -0.0989222  
C189     C      0.125400000000     0.478150000000     0.056560000000     0.0192547  
C190     C      0.109360000000     0.468000000000     0.019510000000     0.0188063  
C191     C      0.181010000000     0.469030000000     0.115200000000     0.0103794  
C192     C      0.174440000000     0.468740000000     0.069870000000    -0.0992441  
Cd1      Cd     0.996910000000     0.358980000000     0.891990000000     0.505515   
Cd2      Cd     0.237620000000     0.575300000000     0.199300000000     0.505      
Cd3      Cd     0.460370000000     0.801940000000     0.892800000000     0.504114   
Cd4      Cd     0.721550000000     0.094200000000     0.075520000000     0.505135   
Cd5      Cd     0.479450000000     0.283540000000     0.407790000000     0.505455   
Cd6      Cd     0.718240000000     0.585660000000     0.598820000000     0.505978   
Cd7      Cd     0.953620000000     0.872700000000     0.392340000000     0.505416   
Cd8      Cd     0.208800000000     0.079390000000     0.675590000000     0.505228   
H1       H      0.140070000000     0.051830000000     0.474940000000     0.0458744  
H2       H      0.025550000000     0.949770000000     0.525960000000     0.0349397  
H3       H      0.071690000000     0.111130000000     0.547920000000     0.0308566  
H4       H      0.022490000000     0.062900000000     0.542810000000     0.046246   
H5       H      0.998580000000     0.009430000000     0.530710000000     0.0468026  
H6       H      0.121800000000     0.999190000000     0.455030000000     0.0462759  
H7       H      0.190450000000     0.079500000000     0.529840000000     0.0421117  
H8       H      0.969900000000     0.954370000000     0.503080000000     0.0450367  
H9       H      0.056920000000     0.035180000000     0.575070000000     0.0574847  
H10      H      0.068720000000     0.007710000000     0.429590000000     0.055746   
H11      H      0.066710000000     0.094200000000     0.597820000000     0.043323   
H12      H      0.097550000000     0.943090000000     0.478920000000     0.0343604  
H13      H      0.154790000000     0.024640000000     0.517320000000     0.0561709  
H14      H      0.989620000000     0.013240000000     0.477970000000     0.056652   
H15      H      0.088150000000     0.945370000000     0.426010000000     0.0437518  
H16      H      0.142810000000     0.104030000000     0.510030000000     0.0304994  
H17      H      0.776050000000     0.756820000000     0.449860000000     0.0463701  
H18      H      0.869090000000     0.637200000000     0.492180000000     0.0319784  
H19      H      0.854260000000     0.806140000000     0.528270000000     0.0322453  
H20      H      0.885920000000     0.749120000000     0.533880000000     0.0469912  
H21      H      0.891240000000     0.691320000000     0.520510000000     0.0467791  
H22      H      0.778370000000     0.699000000000     0.441320000000     0.0463373  
H23      H      0.806890000000     0.815280000000     0.425710000000     0.0429808  
H24      H      0.862390000000     0.633030000000     0.545320000000     0.0442672  
H25      H      0.911840000000     0.750170000000     0.484940000000     0.0582062  
H26      H      0.753040000000     0.701810000000     0.490390000000     0.056645   
H27      H      0.913880000000     0.808630000000     0.513930000000     0.0441026  
H28      H      0.801680000000     0.640740000000     0.448520000000     0.0318572  
H29      H      0.828550000000     0.754440000000     0.421260000000     0.0568027  
H30      H      0.841090000000     0.694160000000     0.552260000000     0.0578139  
H31      H      0.744440000000     0.642210000000     0.468830000000     0.0432777  
H32      H      0.792920000000     0.811590000000     0.477760000000     0.0320358  
H33      H      0.418120000000     0.158170000000     0.551700000000     0.0468329  
H34      H      0.310590000000     0.218050000000     0.668740000000     0.0301125  
H35      H      0.325300000000     0.200570000000     0.475620000000     0.032985   
H36      H      0.302540000000     0.228760000000     0.535370000000     0.0466827  
H37      H      0.298670000000     0.233120000000     0.601860000000     0.0462991  
H38      H      0.408410000000     0.164140000000     0.617360000000     0.0464049  
H39      H      0.449920000000     0.177440000000     0.486400000000     0.0435617  
H40      H      0.253320000000     0.203070000000     0.657330000000     0.0414006  
H41      H      0.355220000000     0.253470000000     0.539960000000     0.0572706  
H42      H      0.363420000000     0.134540000000     0.601180000000     0.0585326  
H43      H      0.334610000000     0.247130000000     0.470000000000     0.0443511  
H44      H      0.373100000000     0.177010000000     0.678020000000     0.0307172  
H45      H      0.437470000000     0.203200000000     0.551840000000     0.0568702  
H46      H      0.272610000000     0.191320000000     0.589280000000     0.0585146  
H47      H      0.364810000000     0.130390000000     0.671940000000     0.0431983  
H48      H      0.392350000000     0.160060000000     0.484930000000     0.0330687  
H49      H      0.652230000000     0.376450000000     0.510020000000     0.0462419  
H50      H      0.576140000000     0.510530000000     0.509720000000     0.0331655  
H51      H      0.533120000000     0.348510000000     0.561810000000     0.0306285  
H52      H      0.525850000000     0.409280000000     0.558470000000     0.0457026  
H53      H      0.541150000000     0.464480000000     0.544920000000     0.046013   
H54      H      0.668940000000     0.430690000000     0.491330000000     0.0465359  
H55      H      0.615590000000     0.321290000000     0.483070000000     0.0439301  
H56      H      0.577010000000     0.522470000000     0.561570000000     0.044096   
H57      H      0.515960000000     0.410230000000     0.505300000000     0.0560217  
H58      H      0.677370000000     0.439090000000     0.543760000000     0.0561321  
H59      H      0.485160000000     0.355930000000     0.529040000000     0.0419878  
H60      H      0.649270000000     0.489650000000     0.476440000000     0.033199   
H61      H      0.615810000000     0.382920000000     0.466890000000     0.0576131  
H62      H      0.585390000000     0.462060000000     0.582460000000     0.0556799  
H63      H      0.702300000000     0.489300000000     0.504100000000     0.0438236  
H64      H      0.608210000000     0.329930000000     0.535420000000     0.0312016  
H65      H      0.855500000000     0.045870000000     0.243920000000     0.0458379  
H66      H      0.811190000000     0.907410000000     0.276500000000     0.0328256  
H67      H      0.878310000000     0.010840000000     0.132640000000     0.0322849  
H68      H      0.856610000000     0.958760000000     0.164420000000     0.0459191  
H69      H      0.838150000000     0.923300000000     0.213270000000     0.0459304  
H70      H      0.836310000000     0.011330000000     0.293190000000     0.0459931  
H71      H      0.825760000000     0.085090000000     0.189760000000     0.042981   
H72      H      0.864310000000     0.884100000000     0.268760000000     0.043594   
H73      H      0.797000000000     0.971380000000     0.169940000000     0.055676   
H74      H      0.894940000000     0.995980000000     0.289050000000     0.056117   
H75      H      0.825660000000     0.996880000000     0.109320000000     0.0431296  
H76      H      0.809140000000     0.959480000000     0.322900000000     0.0327528  
H77      H      0.796170000000     0.038000000000     0.230360000000     0.0559425  
H78      H      0.896390000000     0.931280000000     0.229680000000     0.0559913  
H79      H      0.860420000000     0.972480000000     0.349010000000     0.0433973  
H80      H      0.878260000000     0.061710000000     0.179590000000     0.0319205  
H81      H      0.542960000000     0.169180000000     0.191690000000     0.0463263  
H82      H      0.620480000000     0.190360000000     0.339720000000     0.0328092  
H83      H      0.650500000000     0.223770000000     0.150600000000     0.0316531  
H84      H      0.666540000000     0.224130000000     0.219000000000     0.0461429  
H85      H      0.655120000000     0.214830000000     0.283020000000     0.046234   
H86      H      0.530430000000     0.160300000000     0.255340000000     0.0463936  
H87      H      0.579110000000     0.144240000000     0.129790000000     0.0435244  
H88      H      0.620120000000     0.237350000000     0.346220000000     0.0444264  
H89      H      0.680530000000     0.177840000000     0.221120000000     0.0567047  
H90      H      0.517670000000     0.206800000000     0.254890000000     0.0563488  
H91      H      0.703780000000     0.200380000000     0.157110000000     0.0429519  
H92      H      0.547560000000     0.158570000000     0.323490000000     0.032677   
H93      H      0.586180000000     0.135910000000     0.200590000000     0.0567309  
H94      H      0.610880000000     0.247580000000     0.275700000000     0.0563166  
H95      H      0.494560000000     0.182530000000     0.318240000000     0.0437258  
H96      H      0.578590000000     0.191370000000     0.134570000000     0.0320901  
H97      H      0.401610000000     0.928290000000     0.744580000000     0.0464579  
H98      H      0.221450000000     0.923150000000     0.695760000000     0.0315043  
H99      H      0.346780000000     0.924680000000     0.856120000000     0.0332306  
H100     H      0.280720000000     0.911010000000     0.817960000000     0.0466673  
H101     H      0.239220000000     0.913330000000     0.762860000000     0.0464757  
H102     H      0.355890000000     0.932330000000     0.692910000000     0.0462271  
H103     H      0.449140000000     0.897010000000     0.794610000000     0.0437267  
H104     H      0.193030000000     0.957600000000     0.723110000000     0.0430682  
H105     H      0.303640000000     0.869950000000     0.799850000000     0.0566473  
H106     H      0.346900000000     0.974080000000     0.717570000000     0.0574343  
H107     H      0.329220000000     0.880460000000     0.867810000000     0.0435344  
H108     H      0.289280000000     0.935790000000     0.654920000000     0.0312574  
H109     H      0.388220000000     0.882110000000     0.748060000000     0.0566215  
H110     H      0.252050000000     0.959050000000     0.773060000000     0.057422   
H111     H      0.313400000000     0.979310000000     0.652980000000     0.0433706  
H112     H      0.417830000000     0.934410000000     0.813050000000     0.0328085  
H113     H      0.545440000000     0.699770000000     0.676230000000     0.0462598  
H114     H      0.545450000000     0.669130000000     0.835170000000     0.0319059  
H115     H      0.677890000000     0.717270000000     0.687840000000     0.0316456  
H116     H      0.661190000000     0.700580000000     0.754100000000     0.0466001  
H117     H      0.615740000000     0.684390000000     0.804430000000     0.0465575  
H118     H      0.499760000000     0.689630000000     0.727090000000     0.0463039  
H119     H      0.593630000000     0.671570000000     0.621780000000     0.0437243  
H120     H      0.568140000000     0.707000000000     0.860710000000     0.0429863  
H121     H      0.650570000000     0.655080000000     0.741360000000     0.0576285  
H122     H      0.514270000000     0.734540000000     0.739250000000     0.0566253  
H123     H      0.711210000000     0.678650000000     0.699290000000     0.0429614  
H124     H      0.476970000000     0.674960000000     0.791450000000     0.0320395  
H125     H      0.560780000000     0.654300000000     0.684150000000     0.056696   
H126     H      0.600990000000     0.730420000000     0.799810000000     0.0575241  
H127     H      0.452120000000     0.717440000000     0.781940000000     0.0434394  
H128     H      0.611930000000     0.713460000000     0.640940000000     0.0317561  
H129     H      0.621800000000     0.976030000000     0.938220000000     0.0467117  
H130     H      0.616100000000     0.840270000000     0.000550000000     0.0313468  
H131     H      0.562510000000     0.002950000000     0.043960000000     0.0329588  
H132     H      0.578980000000     0.943390000000     0.055380000000     0.0462323  
H133     H      0.594160000000     0.888580000000     0.038630000000     0.0459761  
H134     H      0.639900000000     0.920610000000     0.925110000000     0.0465514  
H135     H      0.644340000000     0.034310000000     0.965220000000     0.0440135  
H136     H      0.555410000000     0.834490000000     0.008800000000     0.043185   
H137     H      0.640530000000     0.949450000000     0.055380000000     0.0561786  
H138     H      0.577820000000     0.920380000000     0.921060000000     0.0574956  
H139     H      0.604700000000     0.001270000000     0.083110000000     0.0435754  
H140     H      0.645320000000     0.859710000000     0.935500000000     0.0314965  
H141     H      0.671540000000     0.974040000000     0.970360000000     0.0572786  
H142     H      0.541660000000     0.896400000000     0.011170000000     0.0566385  
H143     H      0.606790000000     0.865930000000     0.894120000000     0.0432757  
H144     H      0.585860000000     0.021320000000     0.974920000000     0.0331243  
H145     H      0.133330000000     0.692030000000     0.337210000000     0.0470996  
H146     H      0.110320000000     0.816060000000     0.309080000000     0.034388   
H147     H      0.089250000000     0.673940000000     0.215950000000     0.034468   
H148     H      0.106430000000     0.735100000000     0.217280000000     0.0462097  
H149     H      0.097650000000     0.783860000000     0.249540000000     0.0463031  
H150     H      0.069590000000     0.713400000000     0.351110000000     0.0467497  
H151     H      0.155740000000     0.636300000000     0.305970000000     0.0444047  
H152     H      0.058330000000     0.832220000000     0.286580000000     0.0442506  
H153     H      0.165280000000     0.728660000000     0.232730000000     0.0547314  
H154     H      0.023180000000     0.733890000000     0.326450000000     0.0574027  
H155     H      0.141400000000     0.681030000000     0.188330000000     0.0437229  
H156     H      0.100950000000     0.772090000000     0.371150000000     0.0336724  
H157     H      0.179320000000     0.698820000000     0.303870000000     0.0578758  
H158     H      0.038360000000     0.774000000000     0.261110000000     0.0550348  
H159     H      0.043440000000     0.764550000000     0.389140000000     0.0435875  
H160     H      0.098410000000     0.647960000000     0.290500000000     0.0339456  
H161     H      0.325930000000     0.671540000000     0.985730000000     0.0462812  
H162     H      0.401990000000     0.648730000000     0.135200000000     0.0323249  
H163     H      0.323680000000     0.773760000000     0.019220000000     0.0323203  
H164     H      0.358590000000     0.747870000000     0.074770000000     0.0460487  
H165     H      0.382150000000     0.705430000000     0.114600000000     0.0461585  
H166     H      0.352110000000     0.629550000000     0.025210000000     0.046149   
H167     H      0.345290000000     0.714710000000     0.932250000000     0.0435736  
H168     H      0.356960000000     0.662970000000     0.168250000000     0.0434744  
H169     H      0.411490000000     0.737590000000     0.049080000000     0.0567834  
H170     H      0.298080000000     0.639170000000     0.049570000000     0.0567924  
H171     H      0.381140000000     0.791230000000     0.021540000000     0.0440542  
H172     H      0.385960000000     0.604970000000     0.082270000000     0.0319898  
H173     H      0.386740000000     0.680750000000     0.981560000000     0.0569074  
H174     H      0.320890000000     0.697810000000     0.117380000000     0.0561755  
H175     H      0.329620000000     0.585810000000     0.077510000000     0.0429367  
H176     H      0.303250000000     0.728840000000     0.968200000000     0.0324249  
H177     H      0.281480000000     0.437300000000     0.332460000000     0.0466505  
H178     H      0.445030000000     0.381660000000     0.274670000000     0.0320659  
H179     H      0.352140000000     0.528700000000     0.336750000000     0.0321359  
H180     H      0.408410000000     0.489710000000     0.314590000000     0.0461352  
H181     H      0.441170000000     0.440050000000     0.296510000000     0.046179   
H182     H      0.311830000000     0.387320000000     0.310970000000     0.0466546  
H183     H      0.238320000000     0.490760000000     0.309680000000     0.0436338  
H184     H      0.482920000000     0.385060000000     0.316870000000     0.0427191  
H185     H      0.384040000000     0.484870000000     0.265370000000     0.0565947  
H186     H      0.339900000000     0.388800000000     0.358960000000     0.057316   
H187     H      0.366800000000     0.543300000000     0.287380000000     0.0434924  
H188     H      0.368810000000     0.351650000000     0.281580000000     0.0323632  
H189     H      0.284770000000     0.445350000000     0.279420000000     0.0575671  
H190     H      0.435140000000     0.428700000000     0.348460000000     0.0558772  
H191     H      0.352780000000     0.331870000000     0.328280000000     0.0442885  
H192     H      0.279200000000     0.497270000000     0.349270000000     0.0320968  
H193     H      0.170150000000     0.174940000000     0.847860000000     0.0461837  
H194     H      0.054920000000     0.262000000000     0.764030000000     0.033013   
H195     H      0.084800000000     0.099580000000     0.818460000000     0.0306379  
H196     H      0.043080000000     0.149250000000     0.798950000000     0.0461528  
H197     H      0.029350000000     0.204650000000     0.781100000000     0.0465591  
H198     H      0.161380000000     0.231790000000     0.833520000000     0.0465611  
H199     H      0.208320000000     0.121650000000     0.814390000000     0.0425092  
H200     H      0.002610000000     0.265460000000     0.792430000000     0.0430325  
H201     H      0.077280000000     0.156760000000     0.754670000000     0.0591566  
H202     H      0.116300000000     0.233120000000     0.870300000000     0.0566728  
H203     H      0.076650000000     0.094630000000     0.765580000000     0.0435638  
H204     H      0.130640000000     0.278600000000     0.795560000000     0.0332837  
H205     H      0.182090000000     0.178520000000     0.795110000000     0.0577102  
H206     H      0.023500000000     0.214740000000     0.833320000000     0.0562455  
H207     H      0.132210000000     0.292310000000     0.846880000000     0.0445889  
H208     H      0.159260000000     0.114170000000     0.845990000000     0.030727   
H209     H      0.783870000000     0.238030000000     0.961610000000     0.0467557  
H210     H      0.946030000000     0.274580000000     0.038250000000     0.0311797  
H211     H      0.843640000000     0.145190000000     0.941970000000     0.0313592  
H212     H      0.902490000000     0.174190000000     0.976960000000     0.046044   
H213     H      0.936860000000     0.218160000000     0.010910000000     0.0460837  
H214     H      0.818540000000     0.281780000000     0.995800000000     0.0467504  
H215     H      0.732480000000     0.185140000000     0.971500000000     0.0431883  
H216     H      0.988520000000     0.270860000000     0.999440000000     0.0421204  
H217     H      0.872620000000     0.172720000000     0.024130000000     0.0577114  
H218     H      0.847420000000     0.283070000000     0.948140000000     0.0587034  
H219     H      0.852370000000     0.120600000000     0.987200000000     0.0427442  
H220     H      0.877970000000     0.311150000000     0.029600000000     0.0310848  
H221     H      0.780810000000     0.222050000000     0.012240000000     0.05798    
H222     H      0.939900000000     0.233300000000     0.959940000000     0.056995   
H223     H      0.868590000000     0.335350000000     0.984200000000     0.0432733  
H224     H      0.775510000000     0.181930000000     0.933070000000     0.0317627  
H225     H      0.802800000000     0.419290000000     0.779810000000     0.0462615  
H226     H      0.853080000000     0.539280000000     0.711810000000     0.0343801  
H227     H      0.937630000000     0.416650000000     0.741130000000     0.0334798  
H228     H      0.924750000000     0.481680000000     0.745780000000     0.0472442  
H229     H      0.893040000000     0.483650000000     0.690220000000     0.0471436  
H230     H      0.765400000000     0.463830000000     0.758050000000     0.0461759  
H231     H      0.853650000000     0.380780000000     0.820140000000     0.0446594  
H232     H      0.854870000000     0.533960000000     0.658530000000     0.0455065  
H233     H      0.909840000000     0.477590000000     0.796490000000     0.0580435  
H234     H      0.767330000000     0.453340000000     0.705710000000     0.0540224  
H235     H      0.973240000000     0.437290000000     0.778330000000     0.0439268  
H236     H      0.770850000000     0.525540000000     0.747640000000     0.0343799  
H237     H      0.832990000000     0.443170000000     0.818260000000     0.0558424  
H238     H      0.842650000000     0.469800000000     0.665620000000     0.0572836  
H239     H      0.726130000000     0.508630000000     0.716030000000     0.0433531  
H240     H      0.864660000000     0.379970000000     0.767480000000     0.033833   
H241     H      0.061090000000     0.501290000000     0.079490000000     0.046369   
H242     H      0.138670000000     0.464850000000     0.935640000000     0.0322862  
H243     H      0.163700000000     0.445320000000     0.127810000000     0.0321504  
H244     H      0.184330000000     0.441810000000     0.060130000000     0.0464371  
H245     H      0.174120000000     0.447230000000     0.995140000000     0.0463786  
H246     H      0.050920000000     0.504490000000     0.014730000000     0.0462269  
H247     H      0.095580000000     0.528060000000     0.140880000000     0.0434617  
H248     H      0.138970000000     0.417500000000     0.935520000000     0.0443837  
H249     H      0.198770000000     0.487890000000     0.056180000000     0.0570648  
H250     H      0.035960000000     0.458870000000     0.022630000000     0.0565904  
H251     H      0.218400000000     0.466910000000     0.122140000000     0.0433378  
H252     H      0.066250000000     0.497550000000     0.946940000000     0.0318876  
H253     H      0.107090000000     0.532050000000     0.069870000000     0.0565959  
H254     H      0.130900000000     0.414640000000     0.006890000000     0.056792   
H255     H      0.013300000000     0.474450000000     0.956110000000     0.0431432  
H256     H      0.092520000000     0.480820000000     0.139390000000     0.0324568  
N1       N      0.027360000000     0.946990000000     0.462980000000    -0.160965   
N2       N      0.130960000000     0.084110000000     0.567850000000    -0.161708   
N3       N      0.799710000000     0.637720000000     0.511350000000    -0.161373   
N4       N      0.864370000000     0.812410000000     0.466220000000    -0.161587   
N5       N      0.305090000000     0.162800000000     0.662360000000    -0.161932   
N6       N      0.395490000000     0.215210000000     0.477080000000    -0.161094   
N7       N      0.642200000000     0.507690000000     0.535740000000    -0.161084   
N8       N      0.548090000000     0.338510000000     0.501290000000    -0.161558   
N9       N      0.866490000000     0.927040000000     0.310750000000    -0.161124   
N10      N      0.820810000000     0.041930000000     0.148200000000    -0.161477   
N11      N      0.554610000000     0.213200000000     0.333260000000    -0.160821   
N12      N      0.644310000000     0.168800000000     0.142880000000    -0.161274   
N13      N      0.253110000000     0.972950000000     0.689670000000    -0.161608   
N14      N      0.390980000000     0.885710000000     0.832560000000    -0.161624   
N15      N      0.509600000000     0.716280000000     0.822580000000    -0.16167    
N16      N      0.653570000000     0.671080000000     0.659640000000    -0.161565   
N17      N      0.575470000000     0.850260000000     0.949600000000    -0.161042   
N18      N      0.628710000000     0.019360000000     0.025790000000    -0.161034   
N19      N      0.050060000000     0.801440000000     0.340280000000    -0.16074    
N20      N      0.148720000000     0.655040000000     0.245340000000    -0.160805   
N21      N      0.338150000000     0.623820000000     0.124680000000    -0.161272   
N22      N      0.367910000000     0.753660000000     0.974750000000    -0.160474   
N23      N      0.419410000000     0.356900000000     0.326460000000    -0.161449   
N24      N      0.301010000000     0.517710000000     0.293790000000    -0.161342   
N25      N      0.065060000000     0.280780000000     0.822710000000    -0.161113   
N26      N      0.144830000000     0.109200000000     0.784470000000    -0.161302   
N27      N      0.930190000000     0.303900000000     0.986440000000    -0.161946   
N28      N      0.790660000000     0.151940000000     0.984530000000    -0.161932   
N29      N      0.788670000000     0.525170000000     0.686520000000    -0.160536   
N30      N      0.916350000000     0.406180000000     0.800470000000    -0.160768   
N31      N      0.073270000000     0.442240000000     0.945900000000    -0.161045   
N32      N      0.159890000000     0.500710000000     0.132310000000    -0.161241   
O1       O      0.984820000000     0.397990000000     0.834130000000    -0.255512   
O2       O      0.992630000000     0.314740000000     0.945920000000    -0.25896    
O3       O      0.005210000000     0.416200000000     0.926410000000    -0.255791   
O4       O      0.065320000000     0.325860000000     0.868830000000    -0.247128   
O5       O      0.000290000000     0.310620000000     0.843320000000    -0.256664   
O6       O      0.068280000000     0.388470000000     0.914330000000    -0.249258   
O7       O      0.925000000000     0.370100000000     0.855250000000    -0.248748   
O8       O      0.932550000000     0.347130000000     0.938340000000    -0.251504   
O9       O      0.238970000000     0.532050000000     0.254190000000    -0.253391   
O10      O      0.282700000000     0.581930000000     0.137410000000    -0.254017   
O11      O      0.195940000000     0.606650000000     0.252720000000    -0.254359   
O12      O      0.227640000000     0.521160000000     0.159590000000    -0.251584   
O13      O      0.166460000000     0.552220000000     0.168290000000    -0.25376    
O14      O      0.187170000000     0.627680000000     0.193650000000    -0.252927   
O15      O      0.302920000000     0.558940000000     0.243290000000    -0.253963   
O16      O      0.297400000000     0.619680000000     0.183540000000    -0.252424   
O17      O      0.421030000000     0.796290000000     0.957840000000    -0.245585   
O18      O      0.514240000000     0.753930000000     0.876290000000    -0.256984   
O19      O      0.532880000000     0.835570000000     0.894130000000    -0.252117   
O20      O      0.394440000000     0.841930000000     0.880080000000    -0.257275   
O21      O      0.452740000000     0.848440000000     0.841450000000    -0.253233   
O22      O      0.507980000000     0.818270000000     0.951310000000    -0.248216   
O23      O      0.403850000000     0.757260000000     0.913610000000    -0.253259   
O24      O      0.457680000000     0.760770000000     0.835570000000    -0.252892   
O25      O      0.663950000000     0.046450000000     0.079270000000    -0.250927   
O26      O      0.650200000000     0.118440000000     0.104860000000    -0.252754   
O27      O      0.787300000000     0.107610000000     0.031310000000    -0.256124   
O28      O      0.773010000000     0.044710000000     0.093400000000    -0.254053   
O29      O      0.771730000000     0.088060000000     0.134610000000    -0.254003   
O30      O      0.727080000000     0.139790000000     0.023210000000    -0.25476    
O31      O      0.683130000000     0.063260000000     0.020190000000    -0.254265   
O32      O      0.712440000000     0.147030000000     0.117700000000    -0.251245   
O33      O      0.550120000000     0.260600000000     0.376040000000    -0.248297   
O34      O      0.464740000000     0.230850000000     0.448610000000    -0.255047   
O35      O      0.480620000000     0.335470000000     0.362950000000    -0.258207   
O36      O      0.547910000000     0.303600000000     0.445100000000    -0.249169   
O37      O      0.482640000000     0.321850000000     0.467330000000    -0.25731    
O38      O      0.415740000000     0.308640000000     0.367980000000    -0.251041   
O39      O      0.487060000000     0.234240000000     0.360350000000    -0.254514   
O40      O      0.406590000000     0.265080000000     0.439120000000    -0.248077   
O41      O      0.654670000000     0.628220000000     0.610850000000    -0.251325   
O42      O      0.709570000000     0.535930000000     0.552640000000    -0.2565     
O43      O      0.786550000000     0.559110000000     0.629620000000    -0.247519   
O44      O      0.790150000000     0.610580000000     0.572140000000    -0.248754   
O45      O      0.730660000000     0.615800000000     0.534340000000    -0.255103   
O46      O      0.722160000000     0.547750000000     0.658760000000    -0.255311   
O47      O      0.713120000000     0.632020000000     0.649950000000    -0.257606   
O48      O      0.647090000000     0.553210000000     0.581150000000    -0.250515   
O49      O      0.933540000000     0.839460000000     0.452780000000    -0.249862   
O50      O      0.909520000000     0.923890000000     0.368360000000    -0.255556   
O51      O      0.998700000000     0.817900000000     0.389240000000    -0.25542    
O52      O      0.021280000000     0.910000000000     0.408570000000    -0.255264   
O53      O      0.962920000000     0.914350000000     0.447750000000    -0.25128    
O54      O      0.008610000000     0.853360000000     0.339970000000    -0.250838   
O55      O      0.880490000000     0.842330000000     0.408070000000    -0.255353   
O56      O      0.909450000000     0.878730000000     0.329580000000    -0.25121    
O57      O      0.201560000000     0.018150000000     0.699820000000    -0.257545   
O58      O      0.231210000000     0.140980000000     0.664540000000    -0.257529   
O59      O      0.142390000000     0.088370000000     0.720000000000    -0.24682    
O60      O      0.137100000000     0.085260000000     0.636340000000    -0.250201   
O61      O      0.198970000000     0.077220000000     0.602340000000    -0.257361   
O62      O      0.208960000000     0.099660000000     0.745470000000    -0.255223   
O63      O      0.262570000000     0.029420000000     0.665890000000    -0.25108    
O64      O      0.287110000000     0.104700000000     0.674680000000    -0.249466   


