data_structure

_audit_creation_method RASPA-1.0
_audit_creation_date 2023-5-22
_audit_author_name 'Poobodin Mano'

_cell_length_a    42.1219
_cell_length_b    43.734
_cell_length_c    39.4494
_cell_angle_alpha 90.0028
_cell_angle_beta  89.9986
_cell_angle_gamma 103.026
_cell_volume      70802.1

_symmetry_cell_setting          triclinic
_symmetry_space_group_name_Hall 'P 1'
_symmetry_space_group_name_H-M  'P 1'
_symmetry_Int_Tables_number     1

_symmetry_equiv_pos_as_xyz 'x,y,z'

loop_
_atom_site_label
_atom_site_type_symbol
_atom_site_fract_x
_atom_site_fract_y
_atom_site_fract_z
_atom_site_charge
C1       C      0.283160000000     0.349110000000     0.474210000000     0.339854   
C2       C      0.229410000000     0.370440000000     0.367550000000     0.339796   
C3       C      0.170620000000     0.335420000000     0.456120000000     0.341626   
C4       C      0.252890000000     0.439810000000     0.459570000000     0.341711   
C5       C      0.376560000000     0.185960000000     0.551410000000     0.340017   
C6       C      0.430630000000     0.164660000000     0.657930000000     0.339878   
C7       C      0.406880000000     0.095260000000     0.565950000000     0.34156    
C8       C      0.489110000000     0.199700000000     0.569190000000     0.341548   
C9       C      0.415920000000     0.137510000000     0.895390000000     0.340556   
C10      C      0.413630000000     0.221060000000     0.978180000000     0.340831   
C11      C      0.402550000000     0.114140000000     0.005310000000     0.341862   
C12      C      0.503750000000     0.187690000000     0.968090000000     0.34281    
C13      C      0.245630000000     0.398140000000     0.130280000000     0.340569   
C14      C      0.248320000000     0.314820000000     0.047330000000     0.340983   
C15      C      0.158090000000     0.348010000000     0.057290000000     0.342706   
C16      C      0.259360000000     0.421750000000     0.020420000000     0.341879   
C17      C      0.108080000000     0.341530000000     0.022550000000     0.0107312  
C18      C      0.553810000000     0.194120000000     0.002710000000     0.0108043  
C19      C      0.554810000000     0.223740000000     0.949370000000     0.010588   
C20      C      0.561170000000     0.223830000000     0.024520000000    -0.0989549  
C21      C      0.100740000000     0.311820000000     0.000750000000    -0.0989286  
C22      C      0.062320000000     0.255550000000     0.967410000000    -0.0988211  
C23      C      0.088580000000     0.281390000000     0.020880000000     0.0193971  
C24      C      0.073320000000     0.254270000000     0.004400000000     0.0193154  
C25      C      0.107020000000     0.311910000000     0.075900000000     0.0106614  
C26      C      0.099560000000     0.280100000000     0.057870000000    -0.0989457  
C27      C      0.261890000000     0.473840000000     0.994560000000     0.0103027  
C28      C      0.400080000000     0.062100000000     0.031280000000     0.0102789  
C29      C      0.354540000000     0.088380000000     0.039310000000     0.0106643  
C30      C      0.378680000000     0.034060000000     0.012940000000    -0.098739   
C31      C      0.283280000000     0.501860000000     0.012950000000    -0.0987472  
C32      C      0.330050000000     0.062210000000     0.021430000000    -0.0989224  
C33      C      0.320020000000     0.504110000000     0.009310000000     0.019115   
C34      C      0.341940000000     0.031810000000     0.016590000000     0.0191085  
C35      C      0.307430000000     0.447560000000     0.986540000000     0.0106213  
C36      C      0.331910000000     0.473710000000     0.004470000000    -0.0989509  
C37      C      0.258370000000     0.276880000000     0.004260000000     0.0109307  
C38      C      0.403660000000     0.259060000000     0.021220000000     0.0108884  
C39      C      0.388820000000     0.265060000000     0.961400000000     0.0106366  
C40      C      0.368570000000     0.255180000000     0.033600000000    -0.0989288  
C41      C      0.293470000000     0.280800000000     0.991890000000    -0.0989105  
C42      C      0.352730000000     0.261730000000     0.969780000000    -0.0988855  
C43      C      0.316370000000     0.270940000000     0.017870000000     0.0195021  
C44      C      0.345680000000     0.265030000000     0.007620000000     0.0195491  
C45      C      0.273210000000     0.270870000000     0.064080000000     0.0106541  
C46      C      0.309310000000     0.274240000000     0.055710000000    -0.0989421  
C47      C      0.377660000000     0.128730000000     0.846790000000     0.0107125  
C48      C      0.460030000000     0.157950000000     0.710830000000     0.00964818 
C49      C      0.412610000000     0.183020000000     0.712540000000     0.00956343 
C50      C      0.446180000000     0.135280000000     0.739500000000    -0.0993457  
C51      C      0.387360000000     0.146980000000     0.813930000000    -0.0988862  
C52      C      0.396310000000     0.161340000000     0.741030000000    -0.0992642  
C53      C      0.414250000000     0.136650000000     0.793740000000     0.0194081  
C54      C      0.420030000000     0.145930000000     0.760470000000     0.0192691  
C55      C      0.426080000000     0.105660000000     0.846240000000     0.0103209  
C56      C      0.438680000000     0.121760000000     0.812840000000    -0.0986455  
C57      C      0.200320000000     0.377320000000     0.314500000000     0.00968271 
C58      C      0.283600000000     0.406670000000     0.179130000000     0.0107377  
C59      C      0.235320000000     0.429930000000     0.179410000000     0.0104698  
C60      C      0.273610000000     0.388320000000     0.211880000000    -0.0988861  
C61      C      0.214410000000     0.400010000000     0.285940000000    -0.099283   
C62      C      0.222440000000     0.413760000000     0.212680000000    -0.0987223  
C63      C      0.240620000000     0.389320000000     0.265120000000     0.0192717  
C64      C      0.246660000000     0.398690000000     0.231920000000     0.019403   
C65      C      0.247570000000     0.352030000000     0.313020000000     0.00961617 
C66      C      0.264130000000     0.373730000000     0.284670000000    -0.0992843  
C67      C      0.132300000000     0.283440000000     0.453450000000     0.00985661 
C68      C      0.527380000000     0.251710000000     0.571730000000     0.00975272 
C69      C      0.546840000000     0.205050000000     0.552530000000     0.00951843 
C70      C      0.542410000000     0.271210000000     0.541170000000    -0.0990414  
C71      C      0.117230000000     0.263910000000     0.483960000000    -0.0990398  
C72      C      0.063340000000     0.222240000000     0.521140000000    -0.0989383  
C73      C      0.091320000000     0.277120000000     0.502470000000     0.0189345  
C74      C      0.068320000000     0.258010000000     0.522670000000     0.0189331  
C75      C      0.112860000000     0.330100000000     0.472660000000     0.00955693 
C76      C      0.096300000000     0.312890000000     0.504010000000    -0.0989657  
C77      C      0.374400000000     0.041520000000     0.577130000000     0.0104292  
C78      C      0.285360000000     0.493560000000     0.448410000000     0.0104378  
C79      C      0.255530000000     0.481740000000     0.502480000000     0.00995721 
C80      C      0.318510000000     0.503090000000     0.465990000000    -0.0989699  
C81      C      0.341250000000     0.031980000000     0.559540000000    -0.099032   
C82      C      0.286730000000     0.490730000000     0.523680000000    -0.0987366  
C83      C      0.343290000000     0.525930000000     0.521380000000     0.0190478  
C84      C      0.316470000000     0.509140000000     0.504150000000     0.0190329  
C85      C      0.404230000000     0.053320000000     0.523060000000     0.0100502  
C86      C      0.373040000000     0.544330000000     0.501850000000    -0.0988152  
C87      C      0.304870000000     0.330000000000     0.526550000000     0.0102042  
C88      C      0.354760000000     0.205050000000     0.499120000000     0.0103666  
C89      C      0.324510000000     0.203370000000     0.553110000000     0.0101603  
C90      C      0.357030000000     0.240170000000     0.494320000000    -0.0988935  
C91      C      0.302640000000     0.294880000000     0.531340000000    -0.0987294  
C92      C      0.324800000000     0.238380000000     0.551670000000    -0.0987898  
C93      C      0.326030000000     0.281620000000     0.508850000000     0.0191561  
C94      C      0.333660000000     0.253440000000     0.516830000000     0.0192132  
C95      C      0.335220000000     0.331720000000     0.472610000000     0.0101511  
C96      C      0.334920000000     0.296700000000     0.474020000000    -0.0987984  
C97      C      0.283160000000     0.849110000000     0.474210000000     0.339856   
C98      C      0.229410000000     0.870440000000     0.367550000000     0.339798   
C99      C      0.170620000000     0.835420000000     0.456120000000     0.341625   
C100     C      0.252890000000     0.939810000000     0.459570000000     0.341736   
C101     C      0.376570000000     0.685960000000     0.551410000000     0.340098   
C102     C      0.430630000000     0.664660000000     0.657930000000     0.339884   
C103     C      0.406880000000     0.595260000000     0.565950000000     0.341572   
C104     C      0.489110000000     0.699700000000     0.569190000000     0.341551   
C105     C      0.415920000000     0.637510000000     0.895390000000     0.340559   
C106     C      0.413630000000     0.721060000000     0.978180000000     0.340869   
C107     C      0.402550000000     0.614140000000     0.005310000000     0.34183    
C108     C      0.503750000000     0.687690000000     0.968090000000     0.342812   
C109     C      0.245630000000     0.898140000000     0.130280000000     0.340571   
C110     C      0.248320000000     0.814820000000     0.047330000000     0.340984   
C111     C      0.158090000000     0.848010000000     0.057290000000     0.342709   
C112     C      0.259360000000     0.921750000000     0.020420000000     0.341892   
C113     C      0.108080000000     0.841530000000     0.022550000000     0.0107291  
C114     C      0.553810000000     0.694120000000     0.002710000000     0.0108114  
C115     C      0.554810000000     0.723740000000     0.949370000000     0.0105869  
C116     C      0.561170000000     0.723830000000     0.024520000000    -0.0989701  
C117     C      0.100740000000     0.811820000000     0.000750000000    -0.0989274  
C118     C      0.062320000000     0.755550000000     0.967410000000    -0.0988239  
C119     C      0.088580000000     0.781390000000     0.020880000000     0.0193959  
C120     C      0.073320000000     0.754270000000     0.004400000000     0.0193217  
C121     C      0.107020000000     0.811910000000     0.075900000000     0.0106607  
C122     C      0.099560000000     0.780100000000     0.057870000000    -0.098946   
C123     C      0.261890000000     0.973840000000     0.994560000000     0.0104601  
C124     C      0.400080000000     0.562100000000     0.031280000000     0.0103519  
C125     C      0.354540000000     0.588380000000     0.039310000000     0.0106606  
C126     C      0.378690000000     0.534060000000     0.012940000000    -0.0987855  
C127     C      0.283280000000     0.001860000000     0.012950000000    -0.0988803  
C128     C      0.330050000000     0.562210000000     0.021430000000    -0.0989079  
C129     C      0.320020000000     0.004110000000     0.009310000000     0.01894    
C130     C      0.341940000000     0.531810000000     0.016590000000     0.0190796  
C131     C      0.307430000000     0.947560000000     0.986540000000     0.0105858  
C132     C      0.331910000000     0.973710000000     0.004470000000    -0.0987608  
C133     C      0.258370000000     0.776880000000     0.004260000000     0.010929   
C134     C      0.403660000000     0.759060000000     0.021220000000     0.0108915  
C135     C      0.388820000000     0.765060000000     0.961400000000     0.0106455  
C136     C      0.368570000000     0.755180000000     0.033600000000    -0.0989365  
C137     C      0.293470000000     0.780800000000     0.991890000000    -0.0989059  
C138     C      0.352730000000     0.761730000000     0.969780000000    -0.0989244  
C139     C      0.316370000000     0.770940000000     0.017870000000     0.0194908  
C140     C      0.345680000000     0.765030000000     0.007620000000     0.0195669  
C141     C      0.273210000000     0.770870000000     0.064080000000     0.0106473  
C142     C      0.309310000000     0.774240000000     0.055710000000    -0.0989095  
C143     C      0.377660000000     0.628730000000     0.846790000000     0.0107117  
C144     C      0.460020000000     0.657950000000     0.710830000000     0.00975158 
C145     C      0.412610000000     0.683020000000     0.712540000000     0.0095671  
C146     C      0.446180000000     0.635280000000     0.739500000000    -0.0993416  
C147     C      0.387360000000     0.646980000000     0.813930000000    -0.0988866  
C148     C      0.396310000000     0.661340000000     0.741030000000    -0.0992685  
C149     C      0.414250000000     0.636650000000     0.793740000000     0.0194134  
C150     C      0.420030000000     0.645930000000     0.760470000000     0.019276   
C151     C      0.426080000000     0.605660000000     0.846240000000     0.0103192  
C152     C      0.438680000000     0.621760000000     0.812840000000    -0.0986455  
C153     C      0.200320000000     0.877320000000     0.314500000000     0.00968578 
C154     C      0.283600000000     0.906670000000     0.179130000000     0.0107015  
C155     C      0.235320000000     0.929930000000     0.179410000000     0.0104659  
C156     C      0.273610000000     0.888320000000     0.211880000000    -0.0988732  
C157     C      0.214410000000     0.900010000000     0.285940000000    -0.0992891  
C158     C      0.222440000000     0.913760000000     0.212680000000    -0.0987204  
C159     C      0.240620000000     0.889320000000     0.265120000000     0.019282   
C160     C      0.246660000000     0.898690000000     0.231920000000     0.0194068  
C161     C      0.247570000000     0.852030000000     0.313020000000     0.00961881 
C162     C      0.264130000000     0.873730000000     0.284670000000    -0.0992892  
C163     C      0.132300000000     0.783440000000     0.453450000000     0.00985584 
C164     C      0.527380000000     0.751710000000     0.571730000000     0.00975106 
C165     C      0.546840000000     0.705050000000     0.552530000000     0.00954747 
C166     C      0.542410000000     0.771210000000     0.541170000000    -0.0990327  
C167     C      0.117230000000     0.763910000000     0.483960000000    -0.0990394  
C168     C      0.063340000000     0.722240000000     0.521140000000    -0.0989398  
C169     C      0.091320000000     0.777120000000     0.502470000000     0.0189348  
C170     C      0.068320000000     0.758010000000     0.522670000000     0.0189376  
C171     C      0.112860000000     0.830100000000     0.472650000000     0.00953905 
C172     C      0.096300000000     0.812890000000     0.504010000000    -0.0989565  
C173     C      0.374400000000     0.541520000000     0.577130000000     0.0104325  
C174     C      0.285360000000     0.993560000000     0.448410000000     0.0109144  
C175     C      0.255530000000     0.981740000000     0.502480000000     0.0101203  
C176     C      0.318510000000     0.003090000000     0.465990000000    -0.0994334  
C177     C      0.341260000000     0.531980000000     0.559540000000    -0.0989485  
C178     C      0.286730000000     0.990730000000     0.523680000000    -0.0983931  
C179     C      0.343290000000     0.025930000000     0.521380000000     0.0190592  
C180     C      0.316470000000     0.009140000000     0.504150000000     0.0189176  
C181     C      0.404230000000     0.553320000000     0.523060000000     0.0100533  
C182     C      0.373040000000     0.044330000000     0.501850000000    -0.0987965  
C183     C      0.304870000000     0.830000000000     0.526550000000     0.0102029  
C184     C      0.354760000000     0.705040000000     0.499120000000     0.0103065  
C185     C      0.324510000000     0.703360000000     0.553110000000     0.0101276  
C186     C      0.357030000000     0.740170000000     0.494320000000    -0.0988637  
C187     C      0.302640000000     0.794880000000     0.531340000000    -0.0987315  
C188     C      0.324800000000     0.738380000000     0.551670000000    -0.0987704  
C189     C      0.326030000000     0.781620000000     0.508850000000     0.0191647  
C190     C      0.333660000000     0.753440000000     0.516830000000     0.0192028  
C191     C      0.335220000000     0.831720000000     0.472610000000     0.0101501  
C192     C      0.334920000000     0.796700000000     0.474020000000    -0.0988007  
C193     C      0.783160000000     0.349110000000     0.474210000000     0.339857   
C194     C      0.729410000000     0.370440000000     0.367550000000     0.3398     
C195     C      0.670620000000     0.335420000000     0.456120000000     0.341633   
C196     C      0.752890000000     0.439810000000     0.459570000000     0.341718   
C197     C      0.876570000000     0.185960000000     0.551410000000     0.340106   
C198     C      0.930630000000     0.164660000000     0.657930000000     0.339895   
C199     C      0.906890000000     0.095260000000     0.565950000000     0.341578   
C200     C      0.989110000000     0.199700000000     0.569190000000     0.342546   
C201     C      0.915920000000     0.137510000000     0.895390000000     0.340554   
C202     C      0.913630000000     0.221060000000     0.978180000000     0.340771   
C203     C      0.902550000000     0.114140000000     0.005310000000     0.341873   
C204     C      0.003750000000     0.187690000000     0.968090000000     0.340307   
C205     C      0.745630000000     0.398140000000     0.130280000000     0.340567   
C206     C      0.748320000000     0.314820000000     0.047330000000     0.340985   
C207     C      0.658090000000     0.348010000000     0.057290000000     0.342716   
C208     C      0.759360000000     0.421750000000     0.020420000000     0.342      
C209     C      0.608080000000     0.341530000000     0.022550000000     0.0107414  
C210     C      0.053810000000     0.194120000000     0.002710000000     0.0106552  
C211     C      0.054810000000     0.223740000000     0.949370000000     0.0104353  
C212     C      0.061170000000     0.223830000000     0.024520000000    -0.0988877  
C213     C      0.600740000000     0.311820000000     0.000750000000    -0.0989805  
C214     C      0.562320000000     0.255550000000     0.967410000000    -0.0988893  
C215     C      0.588580000000     0.281390000000     0.020880000000     0.0194518  
C216     C      0.573320000000     0.254270000000     0.004400000000     0.0194067  
C217     C      0.607020000000     0.311910000000     0.075900000000     0.010658   
C218     C      0.599560000000     0.280100000000     0.057870000000    -0.0989519  
C219     C      0.761890000000     0.473840000000     0.994560000000     0.010305   
C220     C      0.900090000000     0.062100000000     0.031280000000     0.0102464  
C221     C      0.854540000000     0.088380000000     0.039310000000     0.0106647  
C222     C      0.878690000000     0.034060000000     0.012940000000    -0.0987605  
C223     C      0.783280000000     0.501860000000     0.012950000000    -0.0987544  
C224     C      0.830050000000     0.062210000000     0.021430000000    -0.0989193  
C225     C      0.820020000000     0.504110000000     0.009310000000     0.0191301  
C226     C      0.841940000000     0.031810000000     0.016590000000     0.0191021  
C227     C      0.807430000000     0.447560000000     0.986540000000     0.0106293  
C228     C      0.831910000000     0.473710000000     0.004470000000    -0.0989659  
C229     C      0.758370000000     0.276880000000     0.004260000000     0.0109274  
C230     C      0.903660000000     0.259060000000     0.021220000000     0.010849   
C231     C      0.888820000000     0.265060000000     0.961400000000     0.0106339  
C232     C      0.868570000000     0.255180000000     0.033600000000    -0.0989255  
C233     C      0.793470000000     0.280800000000     0.991890000000    -0.0989116  
C234     C      0.852730000000     0.261730000000     0.969780000000    -0.0989207  
C235     C      0.816370000000     0.270940000000     0.017870000000     0.0195069  
C236     C      0.845680000000     0.265030000000     0.007620000000     0.019578   
C237     C      0.773210000000     0.270870000000     0.064080000000     0.0106493  
C238     C      0.809310000000     0.274240000000     0.055710000000    -0.0989202  
C239     C      0.877660000000     0.128730000000     0.846790000000     0.0107249  
C240     C      0.960030000000     0.157950000000     0.710830000000     0.00963802 
C241     C      0.912610000000     0.183020000000     0.712540000000     0.00955812 
C242     C      0.946180000000     0.135280000000     0.739500000000    -0.0993582  
C243     C      0.887360000000     0.146980000000     0.813930000000    -0.0989139  
C244     C      0.896310000000     0.161340000000     0.741030000000    -0.0992646  
C245     C      0.914240000000     0.136650000000     0.793740000000     0.0194644  
C246     C      0.920030000000     0.145930000000     0.760470000000     0.0193022  
C247     C      0.926080000000     0.105660000000     0.846240000000     0.0103472  
C248     C      0.938680000000     0.121760000000     0.812840000000    -0.0987249  
C249     C      0.700320000000     0.377320000000     0.314500000000     0.00967962 
C250     C      0.783600000000     0.406670000000     0.179130000000     0.0107016  
C251     C      0.735320000000     0.429930000000     0.179410000000     0.0104692  
C252     C      0.773610000000     0.388320000000     0.211880000000    -0.0988807  
C253     C      0.714410000000     0.400010000000     0.285940000000    -0.0992906  
C254     C      0.722440000000     0.413760000000     0.212680000000    -0.0987301  
C255     C      0.740620000000     0.389320000000     0.265120000000     0.0192944  
C256     C      0.746660000000     0.398690000000     0.231920000000     0.0194209  
C257     C      0.747570000000     0.352030000000     0.313020000000     0.00961739 
C258     C      0.764130000000     0.373730000000     0.284670000000    -0.0992945  
C259     C      0.632300000000     0.283440000000     0.453450000000     0.00985591 
C260     C      0.027380000000     0.251710000000     0.571730000000     0.0097591  
C261     C      0.046840000000     0.205050000000     0.552530000000     0.00952688 
C262     C      0.042410000000     0.271210000000     0.541170000000    -0.0990398  
C263     C      0.617230000000     0.263910000000     0.483960000000    -0.0990483  
C264     C      0.563340000000     0.222240000000     0.521140000000    -0.098934   
C265     C      0.591320000000     0.277120000000     0.502470000000     0.0189838  
C266     C      0.568320000000     0.258010000000     0.522670000000     0.0189928  
C267     C      0.612860000000     0.330100000000     0.472660000000     0.0095571  
C268     C      0.596300000000     0.312890000000     0.504010000000    -0.0989793  
C269     C      0.874400000000     0.041520000000     0.577130000000     0.0104323  
C270     C      0.785360000000     0.493560000000     0.448410000000     0.0104391  
C271     C      0.755530000000     0.481740000000     0.502480000000     0.00994377 
C272     C      0.818510000000     0.503090000000     0.465990000000    -0.0989794  
C273     C      0.841260000000     0.031980000000     0.559540000000    -0.0989611  
C274     C      0.786730000000     0.490730000000     0.523680000000    -0.0987161  
C275     C      0.843290000000     0.525930000000     0.521380000000     0.019082   
C276     C      0.816470000000     0.509140000000     0.504150000000     0.0190421  
C277     C      0.904230000000     0.053320000000     0.523060000000     0.01004    
C278     C      0.873040000000     0.544330000000     0.501850000000    -0.098793   
C279     C      0.804870000000     0.330000000000     0.526550000000     0.0102004  
C280     C      0.854760000000     0.205050000000     0.499120000000     0.0103649  
C281     C      0.824510000000     0.203370000000     0.553110000000     0.0101907  
C282     C      0.857030000000     0.240170000000     0.494320000000    -0.0989124  
C283     C      0.802640000000     0.294880000000     0.531340000000    -0.0987319  
C284     C      0.824800000000     0.238380000000     0.551670000000    -0.0988134  
C285     C      0.826030000000     0.281620000000     0.508850000000     0.0191818  
C286     C      0.833660000000     0.253440000000     0.516830000000     0.0192488  
C287     C      0.835220000000     0.331720000000     0.472610000000     0.010147   
C288     C      0.834920000000     0.296700000000     0.474020000000    -0.0988045  
C289     C      0.783160000000     0.849110000000     0.474210000000     0.339859   
C290     C      0.729410000000     0.870440000000     0.367550000000     0.339955   
C291     C      0.670620000000     0.835420000000     0.456120000000     0.341632   
C292     C      0.752890000000     0.939810000000     0.459570000000     0.341744   
C293     C      0.876570000000     0.685960000000     0.551410000000     0.339933   
C294     C      0.930630000000     0.664660000000     0.657930000000     0.339894   
C295     C      0.906890000000     0.595260000000     0.565950000000     0.341663   
C296     C      0.989110000000     0.699700000000     0.569190000000     0.342544   
C297     C      0.915930000000     0.637510000000     0.895390000000     0.340575   
C298     C      0.913630000000     0.721060000000     0.978180000000     0.340993   
C299     C      0.902550000000     0.614140000000     0.005310000000     0.341837   
C300     C      0.003750000000     0.687690000000     0.968090000000     0.340233   
C301     C      0.745630000000     0.898140000000     0.130280000000     0.340574   
C302     C      0.748320000000     0.814820000000     0.047330000000     0.340986   
C303     C      0.658090000000     0.848010000000     0.057290000000     0.342797   
C304     C      0.759360000000     0.921750000000     0.020420000000     0.341895   
C305     C      0.608080000000     0.841530000000     0.022550000000     0.0107293  
C306     C      0.053810000000     0.694120000000     0.002710000000     0.0106586  
C307     C      0.054810000000     0.723740000000     0.949370000000     0.0104344  
C308     C      0.061170000000     0.723830000000     0.024520000000    -0.0989091  
C309     C      0.600740000000     0.811820000000     0.000750000000    -0.0989325  
C310     C      0.562320000000     0.755550000000     0.967410000000    -0.098885   
C311     C      0.588580000000     0.781390000000     0.020880000000     0.019442   
C312     C      0.573330000000     0.754270000000     0.004400000000     0.0194043  
C313     C      0.607020000000     0.811910000000     0.075900000000     0.0106571  
C314     C      0.599560000000     0.780100000000     0.057870000000    -0.0989496  
C315     C      0.761890000000     0.973840000000     0.994560000000     0.0104574  
C316     C      0.900080000000     0.562100000000     0.031280000000     0.0103438  
C317     C      0.854540000000     0.588380000000     0.039310000000     0.0106661  
C318     C      0.878690000000     0.534060000000     0.012940000000    -0.0987933  
C319     C      0.783280000000     0.001860000000     0.012950000000    -0.0988896  
C320     C      0.830050000000     0.562210000000     0.021430000000    -0.0989442  
C321     C      0.820020000000     0.004110000000     0.009310000000     0.0189703  
C322     C      0.841940000000     0.531810000000     0.016590000000     0.0191025  
C323     C      0.807430000000     0.947560000000     0.986540000000     0.0106173  
C324     C      0.831910000000     0.973710000000     0.004470000000    -0.0987923  
C325     C      0.758370000000     0.776880000000     0.004260000000     0.0109294  
C326     C      0.903660000000     0.759060000000     0.021220000000     0.0108846  
C327     C      0.888820000000     0.765060000000     0.961400000000     0.0106412  
C328     C      0.868570000000     0.755180000000     0.033600000000    -0.0989347  
C329     C      0.793470000000     0.780800000000     0.991890000000    -0.0989175  
C330     C      0.852730000000     0.761730000000     0.969780000000    -0.0989241  
C331     C      0.816370000000     0.770940000000     0.017870000000     0.0195191  
C332     C      0.845680000000     0.765030000000     0.007620000000     0.019582   
C333     C      0.773210000000     0.770870000000     0.064080000000     0.0106559  
C334     C      0.809310000000     0.774240000000     0.055710000000    -0.0989537  
C335     C      0.877660000000     0.628730000000     0.846790000000     0.010731   
C336     C      0.960030000000     0.657950000000     0.710830000000     0.00958322 
C337     C      0.912610000000     0.683020000000     0.712540000000     0.00955405 
C338     C      0.946180000000     0.635280000000     0.739500000000    -0.099274   
C339     C      0.887360000000     0.646980000000     0.813930000000    -0.0989208  
C340     C      0.896310000000     0.661340000000     0.741030000000    -0.0992555  
C341     C      0.914240000000     0.636650000000     0.793740000000     0.0194788  
C342     C      0.920030000000     0.645930000000     0.760470000000     0.0192829  
C343     C      0.926080000000     0.605660000000     0.846240000000     0.010336   
C344     C      0.938680000000     0.621760000000     0.812840000000    -0.0987266  
C345     C      0.700320000000     0.877320000000     0.314500000000     0.00968827 
C346     C      0.783600000000     0.906670000000     0.179130000000     0.0107335  
C347     C      0.735320000000     0.929930000000     0.179410000000     0.0104677  
C348     C      0.773610000000     0.888320000000     0.211880000000    -0.0988926  
C349     C      0.714410000000     0.900010000000     0.285940000000    -0.099298   
C350     C      0.722440000000     0.913760000000     0.212680000000    -0.098732   
C351     C      0.740620000000     0.889320000000     0.265120000000     0.0193029  
C352     C      0.746660000000     0.898690000000     0.231920000000     0.019431   
C353     C      0.747570000000     0.852030000000     0.313020000000     0.0096278  
C354     C      0.764130000000     0.873730000000     0.284670000000    -0.0993012  
C355     C      0.632300000000     0.783440000000     0.453450000000     0.00985534 
C356     C      0.027380000000     0.751710000000     0.571730000000     0.00975926 
C357     C      0.046840000000     0.705050000000     0.552530000000     0.0095266  
C358     C      0.042410000000     0.771210000000     0.541170000000    -0.0990421  
C359     C      0.617230000000     0.763910000000     0.483960000000    -0.0990483  
C360     C      0.563340000000     0.722240000000     0.521140000000    -0.0989962  
C361     C      0.591320000000     0.777120000000     0.502470000000     0.0189849  
C362     C      0.568330000000     0.758010000000     0.522670000000     0.0189927  
C363     C      0.612860000000     0.830100000000     0.472650000000     0.00953917 
C364     C      0.596300000000     0.812890000000     0.504010000000    -0.0989698  
C365     C      0.874400000000     0.541520000000     0.577130000000     0.0104329  
C366     C      0.785360000000     0.993560000000     0.448410000000     0.0109237  
C367     C      0.755530000000     0.981740000000     0.502480000000     0.0101179  
C368     C      0.818510000000     0.003090000000     0.465990000000    -0.0994438  
C369     C      0.841250000000     0.531980000000     0.559540000000    -0.0990276  
C370     C      0.786730000000     0.990730000000     0.523680000000    -0.0984074  
C371     C      0.843290000000     0.025930000000     0.521380000000     0.0190668  
C372     C      0.816470000000     0.009140000000     0.504150000000     0.0189425  
C373     C      0.904230000000     0.553320000000     0.523060000000     0.0100355  
C374     C      0.873040000000     0.044330000000     0.501850000000    -0.0988179  
C375     C      0.804870000000     0.830000000000     0.526550000000     0.0101994  
C376     C      0.854760000000     0.705040000000     0.499120000000     0.0103059  
C377     C      0.824510000000     0.703360000000     0.553110000000     0.0101292  
C378     C      0.857030000000     0.740170000000     0.494320000000    -0.0988808  
C379     C      0.802640000000     0.794880000000     0.531340000000    -0.0987345  
C380     C      0.824800000000     0.738380000000     0.551670000000    -0.0987814  
C381     C      0.826030000000     0.781620000000     0.508850000000     0.0191914  
C382     C      0.833660000000     0.753440000000     0.516830000000     0.0192355  
C383     C      0.835220000000     0.831720000000     0.472610000000     0.0101463  
C384     C      0.834920000000     0.796700000000     0.474020000000    -0.0988073  
Cd1      Cd     0.233950000000     0.374340000000     0.440350000000     0.505691   
Cd2      Cd     0.425840000000     0.160730000000     0.585150000000     0.505704   
Cd3      Cd     0.434330000000     0.164510000000     0.961320000000     0.505786   
Cd4      Cd     0.227480000000     0.371280000000     0.064230000000     0.50577    
Cd5      Cd     0.233950000000     0.874340000000     0.440350000000     0.505699   
Cd6      Cd     0.425840000000     0.660730000000     0.585150000000     0.505687   
Cd7      Cd     0.434320000000     0.664510000000     0.961320000000     0.505767   
Cd8      Cd     0.227480000000     0.871280000000     0.064230000000     0.505778   
Cd9      Cd     0.733950000000     0.374340000000     0.440350000000     0.505709   
Cd10     Cd     0.925840000000     0.160730000000     0.585150000000     0.505783   
Cd11     Cd     0.934320000000     0.164510000000     0.961320000000     0.505818   
Cd12     Cd     0.727480000000     0.371280000000     0.064230000000     0.505804   
Cd13     Cd     0.733950000000     0.874340000000     0.440350000000     0.505732   
Cd14     Cd     0.925840000000     0.660730000000     0.585150000000     0.505774   
Cd15     Cd     0.934320000000     0.664510000000     0.961320000000     0.505806   
Cd16     Cd     0.727480000000     0.871280000000     0.064230000000     0.505782   
H1       H      0.082390000000     0.315310000000     0.981790000000     0.0467116  
H2       H      0.577350000000     0.188470000000     0.995340000000     0.0316661  
H3       H      0.083510000000     0.318040000000     0.082470000000     0.0314298  
H4       H      0.080490000000     0.264510000000     0.073280000000     0.0467286  
H5       H      0.579540000000     0.220330000000     0.043460000000     0.0468323  
H6       H      0.081400000000     0.271130000000     0.951990000000     0.0467001  
H7       H      0.122000000000     0.361550000000     0.007390000000     0.0437462  
H8       H      0.539910000000     0.174100000000     0.017880000000     0.0438019  
H9       H      0.121840000000     0.270480000000     0.058260000000     0.0576812  
H10      H      0.040070000000     0.265210000000     0.967040000000     0.0574682  
H11      H      0.120180000000     0.310100000000     0.099990000000     0.0426961  
H12      H      0.578300000000     0.217600000000     0.942760000000     0.031577   
H13      H      0.123330000000     0.310050000000     0.987060000000     0.0585497  
H14      H      0.538600000000     0.225600000000     0.038240000000     0.0586305  
H15      H      0.541600000000     0.225570000000     0.925320000000     0.0427933  
H16      H      0.084540000000     0.347190000000     0.029890000000     0.0315767  
H17      H      0.276370000000     0.523030000000     0.002470000000     0.0465336  
H18      H      0.399480000000     0.056820000000     0.058910000000     0.0318954  
H19      H      0.307570000000     0.453260000000     0.959030000000     0.0313452  
H20      H      0.354450000000     0.477830000000     0.988910000000     0.0463283  
H21      H      0.385590000000     0.012910000000     0.023450000000     0.0465257  
H22      H      0.307530000000     0.058090000000     0.037010000000     0.0463215  
H23      H      0.236230000000     0.470680000000     0.003220000000     0.0438996  
H24      H      0.425730000000     0.065270000000     0.022600000000     0.0439297  
H25      H      0.337440000000     0.465120000000     0.029830000000     0.0572856  
H26      H      0.324480000000     0.070780000000     0.996060000000     0.0572063  
H27      H      0.315230000000     0.425030000000     0.989190000000     0.0422728  
H28      H      0.354440000000     0.082710000000     0.066820000000     0.0313293  
H29      H      0.277060000000     0.500170000000     0.040370000000     0.0572321  
H30      H      0.384890000000     0.035720000000     0.985510000000     0.0571927  
H31      H      0.346730000000     0.110910000000     0.036640000000     0.0422611  
H32      H      0.262510000000     0.479160000000     0.966940000000     0.0318798  
H33      H      0.291960000000     0.266620000000     0.968340000000     0.0463717  
H34      H      0.415720000000     0.284460000000     0.021940000000     0.0306358  
H35      H      0.260930000000     0.245540000000     0.062770000000     0.0310115  
H36      H      0.317380000000     0.256030000000     0.070940000000     0.0464307  
H37      H      0.370100000000     0.269370000000     0.057130000000     0.0464309  
H38      H      0.344680000000     0.279950000000     0.954550000000     0.046417   
H39      H      0.244880000000     0.289270000000     0.986690000000     0.0421681  
H40      H      0.417160000000     0.246660000000     0.038790000000     0.0422079  
H41      H      0.323020000000     0.297690000000     0.064370000000     0.0580636  
H42      H      0.338990000000     0.238280000000     0.961110000000     0.0580005  
H43      H      0.270740000000     0.278930000000     0.090480000000     0.0430908  
H44      H      0.401130000000     0.290380000000     0.962690000000     0.0310285  
H45      H      0.303320000000     0.305860000000     0.985290000000     0.0582584  
H46      H      0.358710000000     0.230120000000     0.040220000000     0.0582663  
H47      H      0.391280000000     0.256980000000     0.935010000000     0.0431061  
H48      H      0.246340000000     0.251470000000     0.003520000000     0.0306019  
H49      H      0.364660000000     0.143780000000     0.798720000000     0.0461999  
H50      H      0.476190000000     0.179130000000     0.722200000000     0.0329379  
H51      H      0.410190000000     0.082310000000     0.840250000000     0.0308639  
H52      H      0.445910000000     0.103360000000     0.797160000000     0.0462353  
H53      H      0.467550000000     0.133210000000     0.754990000000     0.0465699  
H54      H      0.384780000000     0.176230000000     0.757590000000     0.0465283  
H55      H      0.362670000000     0.141190000000     0.862510000000     0.0428212  
H56      H      0.475350000000     0.146690000000     0.694130000000     0.0437782  
H57      H      0.460780000000     0.140430000000     0.818260000000     0.0572146  
H58      H      0.376750000000     0.142540000000     0.730100000000     0.0568002  
H59      H      0.446970000000     0.101560000000     0.861400000000     0.0431256  
H60      H      0.427780000000     0.204610000000     0.724180000000     0.033312   
H61      H      0.395850000000     0.172290000000     0.820180000000     0.0577017  
H62      H      0.435310000000     0.111860000000     0.728520000000     0.0567821  
H63      H      0.393450000000     0.190180000000     0.697070000000     0.0445523  
H64      H      0.362190000000     0.105320000000     0.840210000000     0.0306918  
H65      H      0.193150000000     0.402180000000     0.270310000000     0.0464845  
H66      H      0.299100000000     0.430010000000     0.185870000000     0.0307219  
H67      H      0.232380000000     0.330520000000     0.301260000000     0.0332516  
H68      H      0.275660000000     0.358810000000     0.268150000000     0.0465461  
H69      H      0.296200000000     0.391370000000     0.227240000000     0.0462397  
H70      H      0.215180000000     0.432140000000     0.228360000000     0.0462411  
H71      H      0.184970000000     0.388610000000     0.331130000000     0.043719   
H72      H      0.298640000000     0.394190000000     0.163470000000     0.0428469  
H73      H      0.283700000000     0.392430000000     0.295750000000     0.0568486  
H74      H      0.200330000000     0.395170000000     0.207060000000     0.057211   
H75      H      0.266590000000     0.344740000000     0.328600000000     0.0445486  
H76      H      0.251250000000     0.453230000000     0.185570000000     0.0308236  
H77      H      0.225270000000     0.423400000000     0.297000000000     0.0567548  
H78      H      0.265060000000     0.363040000000     0.205500000000     0.0576994  
H79      H      0.214560000000     0.434180000000     0.164120000000     0.0430485  
H80      H      0.184140000000     0.356210000000     0.303010000000     0.0328503  
H81      H      0.106950000000     0.240130000000     0.473660000000     0.0460799  
H82      H      0.545520000000     0.255770000000     0.592700000000     0.0325764  
H83      H      0.094660000000     0.327060000000     0.451760000000     0.0329054  
H84      H      0.072730000000     0.320050000000     0.506160000000     0.0461111  
H85      H      0.552650000000     0.295010000000     0.551440000000     0.0461533  
H86      H      0.086900000000     0.215060000000     0.518930000000     0.0461309  
H87      H      0.153860000000     0.274890000000     0.444710000000     0.0431061  
H88      H      0.505820000000     0.260240000000     0.580480000000     0.0431785  
H89      H      0.111240000000     0.321520000000     0.526740000000     0.0561994  
H90      H      0.048350000000     0.213610000000     0.498440000000     0.0560515  
H91      H      0.120330000000     0.355610000000     0.478340000000     0.0444077  
H92      H      0.565070000000     0.208110000000     0.573390000000     0.0330358  
H93      H      0.136840000000     0.262300000000     0.502280000000     0.055919   
H94      H      0.522770000000     0.272760000000     0.522870000000     0.0559538  
H95      H      0.539370000000     0.179530000000     0.546860000000     0.0444958  
H96      H      0.114190000000     0.279410000000     0.432450000000     0.0324419  
H97      H      0.327850000000     0.010660000000     0.573000000000     0.0464455  
H98      H      0.275280000000     0.514870000000     0.445590000000     0.0316551  
H99      H      0.414220000000     0.032020000000     0.526410000000     0.0321707  
H100     H      0.379080000000     0.530480000000     0.480160000000     0.0466421  
H101     H      0.331910000000     0.524410000000     0.452530000000     0.0464811  
H102     H      0.280690000000     0.504570000000     0.545380000000     0.0465914  
H103     H      0.371120000000     0.050420000000     0.603000000000     0.042713   
H104     H      0.288630000000     0.484670000000     0.422530000000     0.0427302  
H105     H      0.367100000000     0.066110000000     0.491780000000     0.0571476  
H106     H      0.292670000000     0.468950000000     0.533750000000     0.0571283  
H107     H      0.422720000000     0.070980000000     0.509080000000     0.0439327  
H108     H      0.245540000000     0.503030000000     0.499140000000     0.0321874  
H109     H      0.327880000000     0.050920000000     0.563240000000     0.0574404  
H110     H      0.331880000000     0.484140000000     0.462290000000     0.0574373  
H111     H      0.237050000000     0.464060000000     0.516450000000     0.0439362  
H112     H      0.384480000000     0.020210000000     0.579960000000     0.0316496  
H113     H      0.307540000000     0.291870000000     0.558650000000     0.0462052  
H114     H      0.332160000000     0.191940000000     0.486440000000     0.0311781  
H115     H      0.357700000000     0.344850000000     0.485480000000     0.0313444  
H116     H      0.359690000000     0.294820000000     0.466070000000     0.0462306  
H117     H      0.352120000000     0.243190000000     0.467020000000     0.0462682  
H118     H      0.300030000000     0.240260000000     0.559640000000     0.0461916  
H119     H      0.283810000000     0.336560000000     0.539270000000     0.0427528  
H120     H      0.375780000000     0.198460000000     0.486340000000     0.0427175  
H121     H      0.317070000000     0.284130000000     0.455140000000     0.0574008  
H122     H      0.342660000000     0.250970000000     0.570530000000     0.0573855  
H123     H      0.336430000000     0.339510000000     0.445730000000     0.0436849  
H124     H      0.302010000000     0.190210000000     0.540310000000     0.0313098  
H125     H      0.277320000000     0.281900000000     0.525700000000     0.056822   
H126     H      0.382350000000     0.253130000000     0.499960000000     0.0569152  
H127     H      0.323360000000     0.195600000000     0.580000000000     0.043662   
H128     H      0.327440000000     0.343120000000     0.539270000000     0.0312337  
H129     H      0.082390000000     0.815310000000     0.981790000000     0.0467202  
H130     H      0.577350000000     0.688470000000     0.995340000000     0.0316726  
H131     H      0.083510000000     0.818040000000     0.082470000000     0.0314393  
H132     H      0.080490000000     0.764510000000     0.073280000000     0.0467312  
H133     H      0.579540000000     0.720340000000     0.043460000000     0.0468489  
H134     H      0.081400000000     0.771130000000     0.951990000000     0.0467068  
H135     H      0.122000000000     0.861550000000     0.007390000000     0.0437625  
H136     H      0.539920000000     0.674100000000     0.017880000000     0.0438028  
H137     H      0.121840000000     0.770480000000     0.058260000000     0.0576831  
H138     H      0.040070000000     0.765210000000     0.967040000000     0.0574739  
H139     H      0.120180000000     0.810100000000     0.099990000000     0.0427022  
H140     H      0.578300000000     0.717600000000     0.942760000000     0.0315842  
H141     H      0.123330000000     0.810050000000     0.987060000000     0.0585548  
H142     H      0.538600000000     0.725600000000     0.038240000000     0.0586415  
H143     H      0.541600000000     0.725570000000     0.925320000000     0.0428001  
H144     H      0.084540000000     0.847190000000     0.029890000000     0.0315915  
H145     H      0.276370000000     0.023030000000     0.002470000000     0.0465202  
H146     H      0.399490000000     0.556820000000     0.058910000000     0.031898   
H147     H      0.307570000000     0.953260000000     0.959030000000     0.0313924  
H148     H      0.354450000000     0.977830000000     0.988910000000     0.0463626  
H149     H      0.385590000000     0.512910000000     0.023450000000     0.0466084  
H150     H      0.307530000000     0.558090000000     0.037010000000     0.0463332  
H151     H      0.236230000000     0.970680000000     0.003220000000     0.043919   
H152     H      0.425740000000     0.565270000000     0.022600000000     0.043935   
H153     H      0.337440000000     0.965120000000     0.029830000000     0.0573039  
H154     H      0.324480000000     0.570780000000     0.996060000000     0.0572149  
H155     H      0.315230000000     0.925030000000     0.989190000000     0.0422957  
H156     H      0.354440000000     0.582710000000     0.066820000000     0.0313485  
H157     H      0.277060000000     0.000170000000     0.040370000000     0.0571955  
H158     H      0.384890000000     0.535720000000     0.985510000000     0.0572459  
H159     H      0.346730000000     0.610910000000     0.036640000000     0.0422695  
H160     H      0.262510000000     0.979160000000     0.966940000000     0.0319092  
H161     H      0.291960000000     0.766620000000     0.968340000000     0.0463766  
H162     H      0.415720000000     0.784460000000     0.021940000000     0.0306453  
H163     H      0.260930000000     0.745540000000     0.062770000000     0.0310182  
H164     H      0.317380000000     0.756030000000     0.070940000000     0.0464266  
H165     H      0.370100000000     0.769370000000     0.057130000000     0.0464374  
H166     H      0.344690000000     0.779950000000     0.954550000000     0.0464459  
H167     H      0.244880000000     0.789270000000     0.986690000000     0.0421738  
H168     H      0.417160000000     0.746660000000     0.038790000000     0.042218   
H169     H      0.323030000000     0.797690000000     0.064370000000     0.0580501  
H170     H      0.338990000000     0.738280000000     0.961110000000     0.0580119  
H171     H      0.270740000000     0.778930000000     0.090480000000     0.0430988  
H172     H      0.401130000000     0.790380000000     0.962690000000     0.0310355  
H173     H      0.303320000000     0.805860000000     0.985290000000     0.0582651  
H174     H      0.358710000000     0.730120000000     0.040220000000     0.0582694  
H175     H      0.391280000000     0.756980000000     0.935010000000     0.0431092  
H176     H      0.246340000000     0.751470000000     0.003520000000     0.0306071  
H177     H      0.364660000000     0.643780000000     0.798720000000     0.0462081  
H178     H      0.476190000000     0.679130000000     0.722200000000     0.0329123  
H179     H      0.410190000000     0.582310000000     0.840250000000     0.0308836  
H180     H      0.445910000000     0.603360000000     0.797160000000     0.0462483  
H181     H      0.467550000000     0.633210000000     0.754990000000     0.0465726  
H182     H      0.384780000000     0.676230000000     0.757590000000     0.0465343  
H183     H      0.362670000000     0.641190000000     0.862510000000     0.0428286  
H184     H      0.475350000000     0.646690000000     0.694130000000     0.0437556  
H185     H      0.460780000000     0.640430000000     0.818260000000     0.0572203  
H186     H      0.376750000000     0.642540000000     0.730100000000     0.0568115  
H187     H      0.446970000000     0.601560000000     0.861400000000     0.0431402  
H188     H      0.427780000000     0.704610000000     0.724180000000     0.0333161  
H189     H      0.395850000000     0.672290000000     0.820180000000     0.0577057  
H190     H      0.435320000000     0.611850000000     0.728520000000     0.0567684  
H191     H      0.393450000000     0.690180000000     0.697070000000     0.0445577  
H192     H      0.362190000000     0.605320000000     0.840210000000     0.030707   
H193     H      0.193150000000     0.902180000000     0.270310000000     0.0464996  
H194     H      0.299100000000     0.930010000000     0.185870000000     0.0307592  
H195     H      0.232380000000     0.830520000000     0.301260000000     0.0332551  
H196     H      0.275660000000     0.858810000000     0.268150000000     0.0465534  
H197     H      0.296200000000     0.891370000000     0.227240000000     0.0462506  
H198     H      0.215180000000     0.932140000000     0.228360000000     0.0462636  
H199     H      0.184970000000     0.888610000000     0.331130000000     0.0437332  
H200     H      0.298630000000     0.894190000000     0.163470000000     0.0428776  
H201     H      0.283700000000     0.892430000000     0.295750000000     0.056866   
H202     H      0.200330000000     0.895170000000     0.207060000000     0.0572187  
H203     H      0.266590000000     0.844740000000     0.328600000000     0.0445547  
H204     H      0.251250000000     0.953230000000     0.185570000000     0.0308597  
H205     H      0.225270000000     0.923400000000     0.297000000000     0.05678    
H206     H      0.265060000000     0.863040000000     0.205500000000     0.0576996  
H207     H      0.214560000000     0.934180000000     0.164120000000     0.0430744  
H208     H      0.184140000000     0.856210000000     0.303010000000     0.032856   
H209     H      0.106950000000     0.740130000000     0.473660000000     0.0460849  
H210     H      0.545520000000     0.755770000000     0.592700000000     0.0325846  
H211     H      0.094660000000     0.827060000000     0.451760000000     0.0329193  
H212     H      0.072730000000     0.820050000000     0.506160000000     0.04612    
H213     H      0.552650000000     0.795010000000     0.551440000000     0.0461609  
H214     H      0.086900000000     0.715060000000     0.518930000000     0.0461369  
H215     H      0.153860000000     0.774890000000     0.444710000000     0.0431106  
H216     H      0.505820000000     0.760240000000     0.580480000000     0.0431863  
H217     H      0.111240000000     0.821520000000     0.526740000000     0.0562085  
H218     H      0.048350000000     0.713610000000     0.498440000000     0.0560574  
H219     H      0.120330000000     0.855610000000     0.478340000000     0.0444296  
H220     H      0.565070000000     0.708110000000     0.573390000000     0.0330341  
H221     H      0.136840000000     0.762300000000     0.502280000000     0.0559236  
H222     H      0.522770000000     0.772760000000     0.522870000000     0.0559597  
H223     H      0.539380000000     0.679530000000     0.546860000000     0.0444866  
H224     H      0.114190000000     0.779410000000     0.432450000000     0.0324479  
H225     H      0.327850000000     0.510660000000     0.573000000000     0.046454   
H226     H      0.275290000000     0.014870000000     0.445590000000     0.0314384  
H227     H      0.414220000000     0.532020000000     0.526410000000     0.032199   
H228     H      0.379080000000     0.030480000000     0.480160000000     0.0466056  
H229     H      0.331910000000     0.024410000000     0.452530000000     0.0465438  
H230     H      0.280690000000     0.004570000000     0.545380000000     0.0464109  
H231     H      0.371120000000     0.550420000000     0.603000000000     0.0427377  
H232     H      0.288630000000     0.984670000000     0.422530000000     0.0426789  
H233     H      0.367110000000     0.566110000000     0.491780000000     0.0571713  
H234     H      0.292670000000     0.968950000000     0.533750000000     0.0571119  
H235     H      0.422720000000     0.570980000000     0.509080000000     0.0439448  
H236     H      0.245540000000     0.003030000000     0.499140000000     0.032035   
H237     H      0.327880000000     0.550920000000     0.563240000000     0.0574139  
H238     H      0.331880000000     0.984140000000     0.462290000000     0.0576626  
H239     H      0.237050000000     0.964060000000     0.516450000000     0.0439484  
H240     H      0.384480000000     0.520210000000     0.579960000000     0.03168    
H241     H      0.307540000000     0.791870000000     0.558650000000     0.0462135  
H242     H      0.332160000000     0.691940000000     0.486440000000     0.0312012  
H243     H      0.357700000000     0.844850000000     0.485480000000     0.0313599  
H244     H      0.359690000000     0.794820000000     0.466070000000     0.0462381  
H245     H      0.352120000000     0.743190000000     0.467020000000     0.0462672  
H246     H      0.300030000000     0.740260000000     0.559640000000     0.0461929  
H247     H      0.283810000000     0.836560000000     0.539270000000     0.0427649  
H248     H      0.375780000000     0.698460000000     0.486340000000     0.0427411  
H249     H      0.317070000000     0.784130000000     0.455140000000     0.0574053  
H250     H      0.342660000000     0.750970000000     0.570530000000     0.0573877  
H251     H      0.336430000000     0.839510000000     0.445730000000     0.0436956  
H252     H      0.302010000000     0.690210000000     0.540310000000     0.0313257  
H253     H      0.277320000000     0.781900000000     0.525700000000     0.0568264  
H254     H      0.382350000000     0.753130000000     0.499960000000     0.0569141  
H255     H      0.323360000000     0.695600000000     0.580000000000     0.0436804  
H256     H      0.327440000000     0.843120000000     0.539270000000     0.0312503  
H257     H      0.582400000000     0.315310000000     0.981790000000     0.0468529  
H258     H      0.077350000000     0.188470000000     0.995340000000     0.0316007  
H259     H      0.583510000000     0.318040000000     0.082470000000     0.0315632  
H260     H      0.580490000000     0.264510000000     0.073280000000     0.0468351  
H261     H      0.079540000000     0.220330000000     0.043460000000     0.0467435  
H262     H      0.581400000000     0.271130000000     0.951990000000     0.0467945  
H263     H      0.622000000000     0.361550000000     0.007390000000     0.0438207  
H264     H      0.039910000000     0.174100000000     0.017880000000     0.0435704  
H265     H      0.621840000000     0.270480000000     0.058260000000     0.0577135  
H266     H      0.540070000000     0.265210000000     0.967040000000     0.0576936  
H267     H      0.620180000000     0.310100000000     0.099990000000     0.0427656  
H268     H      0.078300000000     0.217600000000     0.942760000000     0.0315059  
H269     H      0.623330000000     0.310050000000     0.987060000000     0.0585948  
H270     H      0.038600000000     0.225600000000     0.038240000000     0.0584123  
H271     H      0.041600000000     0.225570000000     0.925320000000     0.0425419  
H272     H      0.584540000000     0.347190000000     0.029890000000     0.0317124  
H273     H      0.776370000000     0.523030000000     0.002470000000     0.046565   
H274     H      0.899490000000     0.056820000000     0.058910000000     0.0320015  
H275     H      0.807570000000     0.453260000000     0.959030000000     0.0313832  
H276     H      0.854450000000     0.477830000000     0.988910000000     0.0463829  
H277     H      0.885590000000     0.012910000000     0.023450000000     0.0466166  
H278     H      0.807530000000     0.058090000000     0.037010000000     0.0463476  
H279     H      0.736230000000     0.470680000000     0.003220000000     0.0439426  
H280     H      0.925740000000     0.065270000000     0.022600000000     0.0440615  
H281     H      0.837440000000     0.465120000000     0.029830000000     0.0573288  
H282     H      0.824480000000     0.070780000000     0.996060000000     0.057223   
H283     H      0.815230000000     0.425030000000     0.989190000000     0.0423072  
H284     H      0.854430000000     0.082710000000     0.066820000000     0.0313825  
H285     H      0.777060000000     0.500170000000     0.040370000000     0.0572599  
H286     H      0.884890000000     0.035720000000     0.985510000000     0.0572582  
H287     H      0.846730000000     0.110910000000     0.036640000000     0.0422935  
H288     H      0.762510000000     0.479160000000     0.966940000000     0.0319191  
H289     H      0.791960000000     0.266620000000     0.968340000000     0.046398   
H290     H      0.915720000000     0.284460000000     0.021940000000     0.0307842  
H291     H      0.760930000000     0.245540000000     0.062770000000     0.031044   
H292     H      0.817380000000     0.256030000000     0.070940000000     0.0464606  
H293     H      0.870100000000     0.269370000000     0.057130000000     0.0464943  
H294     H      0.844690000000     0.279950000000     0.954550000000     0.0464764  
H295     H      0.744880000000     0.289270000000     0.986690000000     0.0421965  
H296     H      0.917150000000     0.246660000000     0.038790000000     0.0423485  
H297     H      0.823030000000     0.297690000000     0.064370000000     0.0580885  
H298     H      0.838990000000     0.238280000000     0.961110000000     0.058026   
H299     H      0.770740000000     0.278930000000     0.090480000000     0.0431268  
H300     H      0.901130000000     0.290380000000     0.962690000000     0.0311341  
H301     H      0.803320000000     0.305860000000     0.985290000000     0.0582894  
H302     H      0.858710000000     0.230120000000     0.040220000000     0.0582949  
H303     H      0.891280000000     0.256980000000     0.935010000000     0.0431764  
H304     H      0.746340000000     0.251470000000     0.003520000000     0.0306314  
H305     H      0.864660000000     0.143780000000     0.798720000000     0.046233   
H306     H      0.976190000000     0.179130000000     0.722200000000     0.0331049  
H307     H      0.910190000000     0.082310000000     0.840250000000     0.0309173  
H308     H      0.945910000000     0.103360000000     0.797160000000     0.0463459  
H309     H      0.967550000000     0.133210000000     0.754990000000     0.0466921  
H310     H      0.884780000000     0.176230000000     0.757590000000     0.0465674  
H311     H      0.862670000000     0.141190000000     0.862510000000     0.0428449  
H312     H      0.975350000000     0.146690000000     0.694130000000     0.0439317  
H313     H      0.960770000000     0.140430000000     0.818260000000     0.0573815  
H314     H      0.876750000000     0.142540000000     0.730100000000     0.0568259  
H315     H      0.946970000000     0.101560000000     0.861400000000     0.0432386  
H316     H      0.927780000000     0.204610000000     0.724180000000     0.0334147  
H317     H      0.895850000000     0.172290000000     0.820180000000     0.0577601  
H318     H      0.935320000000     0.111860000000     0.728520000000     0.0568515  
H319     H      0.893450000000     0.190180000000     0.697070000000     0.044603   
H320     H      0.862190000000     0.105320000000     0.840210000000     0.0307191  
H321     H      0.693150000000     0.402180000000     0.270310000000     0.0465381  
H322     H      0.799100000000     0.430010000000     0.185870000000     0.0307825  
H323     H      0.732380000000     0.330520000000     0.301260000000     0.0332915  
H324     H      0.775660000000     0.358810000000     0.268150000000     0.046587   
H325     H      0.796200000000     0.391370000000     0.227240000000     0.0462869  
H326     H      0.715180000000     0.432140000000     0.228360000000     0.0462881  
H327     H      0.684970000000     0.388610000000     0.331130000000     0.0437771  
H328     H      0.798630000000     0.394190000000     0.163470000000     0.0429092  
H329     H      0.783700000000     0.392430000000     0.295750000000     0.0568943  
H330     H      0.700330000000     0.395170000000     0.207060000000     0.0572578  
H331     H      0.766590000000     0.344740000000     0.328600000000     0.0445875  
H332     H      0.751250000000     0.453230000000     0.185570000000     0.0308653  
H333     H      0.725270000000     0.423400000000     0.297000000000     0.0567953  
H334     H      0.765060000000     0.363040000000     0.205500000000     0.0577283  
H335     H      0.714560000000     0.434180000000     0.164120000000     0.0430959  
H336     H      0.684140000000     0.356210000000     0.303010000000     0.0329091  
H337     H      0.606950000000     0.240130000000     0.473660000000     0.0461531  
H338     H      0.045520000000     0.255770000000     0.592700000000     0.0324038  
H339     H      0.594660000000     0.327060000000     0.451760000000     0.0330156  
H340     H      0.572730000000     0.320050000000     0.506160000000     0.0462267  
H341     H      0.052650000000     0.295010000000     0.551440000000     0.0460426  
H342     H      0.586900000000     0.215060000000     0.518930000000     0.0461981  
H343     H      0.653860000000     0.274890000000     0.444710000000     0.0431478  
H344     H      0.005820000000     0.260240000000     0.580480000000     0.0427996  
H345     H      0.611240000000     0.321520000000     0.526740000000     0.0562593  
H346     H      0.548350000000     0.213610000000     0.498440000000     0.0562347  
H347     H      0.620330000000     0.355610000000     0.478340000000     0.0444841  
H348     H      0.065070000000     0.208110000000     0.573390000000     0.032885   
H349     H      0.636840000000     0.262300000000     0.502280000000     0.055954   
H350     H      0.022770000000     0.272760000000     0.522870000000     0.0557299  
H351     H      0.039370000000     0.179530000000     0.546860000000     0.044173   
H352     H      0.614190000000     0.279410000000     0.432450000000     0.0325293  
H353     H      0.827850000000     0.010660000000     0.573000000000     0.0464495  
H354     H      0.775280000000     0.514870000000     0.445590000000     0.0316953  
H355     H      0.914220000000     0.032020000000     0.526410000000     0.0322825  
H356     H      0.879080000000     0.530480000000     0.480160000000     0.0467075  
H357     H      0.831910000000     0.524410000000     0.452530000000     0.0465272  
H358     H      0.780680000000     0.504570000000     0.545380000000     0.0466091  
H359     H      0.871120000000     0.050420000000     0.603000000000     0.0427564  
H360     H      0.788630000000     0.484670000000     0.422530000000     0.0427705  
H361     H      0.867110000000     0.066110000000     0.491780000000     0.0572096  
H362     H      0.792670000000     0.468950000000     0.533750000000     0.0571527  
H363     H      0.922720000000     0.070980000000     0.509080000000     0.0440541  
H364     H      0.745540000000     0.503030000000     0.499140000000     0.0322348  
H365     H      0.827880000000     0.050920000000     0.563240000000     0.0574273  
H366     H      0.831880000000     0.484140000000     0.462290000000     0.0574843  
H367     H      0.737050000000     0.464060000000     0.516450000000     0.0439819  
H368     H      0.884480000000     0.020210000000     0.579960000000     0.0317213  
H369     H      0.807540000000     0.291870000000     0.558650000000     0.0462433  
H370     H      0.832160000000     0.191940000000     0.486440000000     0.0312176  
H371     H      0.857700000000     0.344850000000     0.485480000000     0.031429   
H372     H      0.859690000000     0.294820000000     0.466070000000     0.0463101  
H373     H      0.852120000000     0.243190000000     0.467020000000     0.0463305  
H374     H      0.800030000000     0.240260000000     0.559640000000     0.0462242  
H375     H      0.783810000000     0.336560000000     0.539270000000     0.0427841  
H376     H      0.875780000000     0.198460000000     0.486340000000     0.0428049  
H377     H      0.817070000000     0.284130000000     0.455140000000     0.0574346  
H378     H      0.842660000000     0.250970000000     0.570530000000     0.0574456  
H379     H      0.836430000000     0.339510000000     0.445730000000     0.0437451  
H380     H      0.802000000000     0.190210000000     0.540310000000     0.0313252  
H381     H      0.777320000000     0.281900000000     0.525700000000     0.0568431  
H382     H      0.882350000000     0.253130000000     0.499960000000     0.0570246  
H383     H      0.823360000000     0.195600000000     0.580000000000     0.0436904  
H384     H      0.827440000000     0.343120000000     0.539270000000     0.0312907  
H385     H      0.582390000000     0.815310000000     0.981790000000     0.0468347  
H386     H      0.077350000000     0.688470000000     0.995340000000     0.0316079  
H387     H      0.583510000000     0.818040000000     0.082470000000     0.0315734  
H388     H      0.580490000000     0.764510000000     0.073280000000     0.0468381  
H389     H      0.079540000000     0.720340000000     0.043460000000     0.0467612  
H390     H      0.581400000000     0.771130000000     0.951990000000     0.0468013  
H391     H      0.622000000000     0.861550000000     0.007390000000     0.0438482  
H392     H      0.039910000000     0.674100000000     0.017880000000     0.0435707  
H393     H      0.621840000000     0.770480000000     0.058260000000     0.0577143  
H394     H      0.540070000000     0.765210000000     0.967040000000     0.0577005  
H395     H      0.620180000000     0.810100000000     0.099990000000     0.0427716  
H396     H      0.078300000000     0.717600000000     0.942760000000     0.0315124  
H397     H      0.623330000000     0.810050000000     0.987060000000     0.058592   
H398     H      0.038600000000     0.725600000000     0.038240000000     0.0584194  
H399     H      0.041600000000     0.725570000000     0.925320000000     0.0425481  
H400     H      0.584540000000     0.847190000000     0.029890000000     0.0317307  
H401     H      0.776370000000     0.023030000000     0.002470000000     0.0465514  
H402     H      0.899490000000     0.556820000000     0.058910000000     0.0319949  
H403     H      0.807570000000     0.953260000000     0.959030000000     0.0314236  
H404     H      0.854450000000     0.977830000000     0.988910000000     0.0464171  
H405     H      0.885590000000     0.512910000000     0.023450000000     0.0466807  
H406     H      0.807530000000     0.558090000000     0.037010000000     0.0463712  
H407     H      0.736230000000     0.970680000000     0.003220000000     0.0439638  
H408     H      0.925740000000     0.565270000000     0.022600000000     0.0440595  
H409     H      0.837440000000     0.965120000000     0.029830000000     0.0573501  
H410     H      0.824490000000     0.570780000000     0.996060000000     0.0572544  
H411     H      0.815240000000     0.925030000000     0.989190000000     0.0423203  
H412     H      0.854440000000     0.582710000000     0.066820000000     0.0314042  
H413     H      0.777060000000     0.000170000000     0.040370000000     0.0572248  
H414     H      0.884890000000     0.535720000000     0.985510000000     0.0572985  
H415     H      0.846730000000     0.610910000000     0.036640000000     0.0423029  
H416     H      0.762510000000     0.979160000000     0.966940000000     0.0319481  
H417     H      0.791960000000     0.766620000000     0.968340000000     0.0464044  
H418     H      0.915720000000     0.784460000000     0.021940000000     0.0307827  
H419     H      0.760930000000     0.745540000000     0.062770000000     0.0310486  
H420     H      0.817380000000     0.756030000000     0.070940000000     0.0464744  
H421     H      0.870100000000     0.769370000000     0.057130000000     0.0465033  
H422     H      0.844690000000     0.779950000000     0.954550000000     0.0464836  
H423     H      0.744880000000     0.789270000000     0.986690000000     0.0422011  
H424     H      0.917160000000     0.746660000000     0.038790000000     0.0423556  
H425     H      0.823020000000     0.797690000000     0.064370000000     0.0581146  
H426     H      0.838990000000     0.738280000000     0.961110000000     0.0580303  
H427     H      0.770740000000     0.778930000000     0.090480000000     0.0431281  
H428     H      0.901130000000     0.790380000000     0.962690000000     0.0311409  
H429     H      0.803320000000     0.805860000000     0.985290000000     0.0582972  
H430     H      0.858710000000     0.730120000000     0.040220000000     0.0583048  
H431     H      0.891280000000     0.756980000000     0.935010000000     0.0431784  
H432     H      0.746340000000     0.751470000000     0.003520000000     0.0306364  
H433     H      0.864660000000     0.643780000000     0.798720000000     0.0462429  
H434     H      0.976190000000     0.679130000000     0.722200000000     0.0331235  
H435     H      0.910190000000     0.582310000000     0.840250000000     0.0309397  
H436     H      0.945910000000     0.603360000000     0.797160000000     0.0463596  
H437     H      0.967550000000     0.633210000000     0.754990000000     0.0466801  
H438     H      0.884780000000     0.676230000000     0.757590000000     0.0465704  
H439     H      0.862670000000     0.641190000000     0.862510000000     0.0428539  
H440     H      0.975340000000     0.646690000000     0.694130000000     0.0439615  
H441     H      0.960770000000     0.640430000000     0.818260000000     0.0573858  
H442     H      0.876750000000     0.642540000000     0.730100000000     0.0568334  
H443     H      0.946970000000     0.601560000000     0.861400000000     0.043254   
H444     H      0.927780000000     0.704610000000     0.724180000000     0.0334212  
H445     H      0.895850000000     0.672290000000     0.820180000000     0.0577648  
H446     H      0.935320000000     0.611850000000     0.728520000000     0.05682    
H447     H      0.893450000000     0.690180000000     0.697070000000     0.0446093  
H448     H      0.862190000000     0.605320000000     0.840210000000     0.0307339  
H449     H      0.693150000000     0.902180000000     0.270310000000     0.0465531  
H450     H      0.799100000000     0.930010000000     0.185870000000     0.0308006  
H451     H      0.732380000000     0.830520000000     0.301260000000     0.0332938  
H452     H      0.775660000000     0.858810000000     0.268150000000     0.0465941  
H453     H      0.796200000000     0.891370000000     0.227240000000     0.0463016  
H454     H      0.715180000000     0.932140000000     0.228360000000     0.0463108  
H455     H      0.684970000000     0.888610000000     0.331130000000     0.0437885  
H456     H      0.798640000000     0.894190000000     0.163470000000     0.0429066  
H457     H      0.783700000000     0.892430000000     0.295750000000     0.05691    
H458     H      0.700330000000     0.895170000000     0.207060000000     0.0572665  
H459     H      0.766590000000     0.844740000000     0.328600000000     0.0445902  
H460     H      0.751250000000     0.953230000000     0.185570000000     0.0308994  
H461     H      0.725270000000     0.923400000000     0.297000000000     0.0568192  
H462     H      0.765060000000     0.863040000000     0.205500000000     0.0577348  
H463     H      0.714560000000     0.934180000000     0.164120000000     0.043121   
H464     H      0.684140000000     0.856210000000     0.303010000000     0.0329137  
H465     H      0.606950000000     0.740130000000     0.473660000000     0.0461575  
H466     H      0.045520000000     0.755770000000     0.592700000000     0.0324113  
H467     H      0.594660000000     0.827060000000     0.451760000000     0.0330298  
H468     H      0.572730000000     0.820050000000     0.506160000000     0.0462358  
H469     H      0.052650000000     0.795010000000     0.551440000000     0.0460527  
H470     H      0.586890000000     0.715060000000     0.518930000000     0.0462417  
H471     H      0.653860000000     0.774890000000     0.444710000000     0.0431526  
H472     H      0.005820000000     0.760240000000     0.580480000000     0.0428071  
H473     H      0.611240000000     0.821520000000     0.526740000000     0.0562683  
H474     H      0.548350000000     0.713610000000     0.498440000000     0.0562552  
H475     H      0.620330000000     0.855610000000     0.478340000000     0.044506   
H476     H      0.065070000000     0.708110000000     0.573390000000     0.0328917  
H477     H      0.636840000000     0.762300000000     0.502280000000     0.0559586  
H478     H      0.022770000000     0.772760000000     0.522870000000     0.0557368  
H479     H      0.039370000000     0.679530000000     0.546860000000     0.0441807  
H480     H      0.614190000000     0.779410000000     0.432450000000     0.0325358  
H481     H      0.827850000000     0.510660000000     0.573000000000     0.0465177  
H482     H      0.775280000000     0.014870000000     0.445590000000     0.0314779  
H483     H      0.914220000000     0.532020000000     0.526410000000     0.0323121  
H484     H      0.879080000000     0.030480000000     0.480160000000     0.0466797  
H485     H      0.831910000000     0.024410000000     0.452530000000     0.0465926  
H486     H      0.780690000000     0.004570000000     0.545380000000     0.046444   
H487     H      0.871120000000     0.550420000000     0.603000000000     0.0427806  
H488     H      0.788630000000     0.984670000000     0.422530000000     0.0427154  
H489     H      0.867100000000     0.566110000000     0.491780000000     0.0571997  
H490     H      0.792670000000     0.968950000000     0.533750000000     0.057142   
H491     H      0.922720000000     0.570980000000     0.509080000000     0.0440708  
H492     H      0.745540000000     0.003030000000     0.499140000000     0.0320806  
H493     H      0.827880000000     0.550920000000     0.563240000000     0.0574734  
H494     H      0.831880000000     0.984140000000     0.462290000000     0.0577069  
H495     H      0.737050000000     0.964060000000     0.516450000000     0.0439917  
H496     H      0.884480000000     0.520210000000     0.579960000000     0.0317513  
H497     H      0.807540000000     0.791870000000     0.558650000000     0.0462514  
H498     H      0.832160000000     0.691940000000     0.486440000000     0.0312383  
H499     H      0.857700000000     0.844850000000     0.485480000000     0.0314434  
H500     H      0.859690000000     0.794820000000     0.466070000000     0.046317   
H501     H      0.852120000000     0.743190000000     0.467020000000     0.0463287  
H502     H      0.800030000000     0.740260000000     0.559640000000     0.0462228  
H503     H      0.783810000000     0.836560000000     0.539270000000     0.0427958  
H504     H      0.875780000000     0.698460000000     0.486340000000     0.0428197  
H505     H      0.817070000000     0.784130000000     0.455140000000     0.0574391  
H506     H      0.842660000000     0.750970000000     0.570530000000     0.0574459  
H507     H      0.836430000000     0.839510000000     0.445730000000     0.0437546  
H508     H      0.802010000000     0.690210000000     0.540310000000     0.0313537  
H509     H      0.777320000000     0.781900000000     0.525700000000     0.0568477  
H510     H      0.882350000000     0.753130000000     0.499960000000     0.0570232  
H511     H      0.823360000000     0.695600000000     0.580000000000     0.0437125  
H512     H      0.827440000000     0.843120000000     0.539270000000     0.0313065  
N1       N      0.536320000000     0.199870000000     0.972190000000    -0.161655   
N2       N      0.125530000000     0.335790000000     0.053110000000    -0.161614   
N3       N      0.387120000000     0.090010000000     0.025520000000    -0.161638   
N4       N      0.274830000000     0.445920000000     0.000290000000    -0.161656   
N5       N      0.403540000000     0.247690000000     0.986320000000    -0.16167    
N6       N      0.258470000000     0.288230000000     0.039160000000    -0.161699   
N7       N      0.433680000000     0.167560000000     0.692340000000    -0.160582   
N8       N      0.406890000000     0.124430000000     0.864430000000    -0.161506   
N9       N      0.254530000000     0.411130000000     0.161300000000    -0.161564   
N10      N      0.226500000000     0.367560000000     0.333130000000    -0.160599   
N11      N      0.519390000000     0.218190000000     0.563330000000    -0.160866   
N12      N      0.140310000000     0.316950000000     0.461890000000    -0.160904   
N13      N      0.263130000000     0.470460000000     0.469190000000    -0.161427   
N14      N      0.396630000000     0.064610000000     0.556340000000    -0.161421   
N15      N      0.352990000000     0.197390000000     0.535290000000    -0.161533   
N16      N      0.306710000000     0.337680000000     0.490380000000    -0.161449   
N17      N      0.536320000000     0.699870000000     0.972190000000    -0.16165    
N18      N      0.125530000000     0.835790000000     0.053110000000    -0.16161    
N19      N      0.387120000000     0.590010000000     0.025520000000    -0.161632   
N20      N      0.274830000000     0.945920000000     0.000290000000    -0.16165    
N21      N      0.403540000000     0.747690000000     0.986320000000    -0.161673   
N22      N      0.258470000000     0.788230000000     0.039160000000    -0.161696   
N23      N      0.433680000000     0.667560000000     0.692340000000    -0.160601   
N24      N      0.406890000000     0.624430000000     0.864430000000    -0.161502   
N25      N      0.254530000000     0.911130000000     0.161300000000    -0.161552   
N26      N      0.226500000000     0.867560000000     0.333130000000    -0.160597   
N27      N      0.519390000000     0.718190000000     0.563330000000    -0.160865   
N28      N      0.140310000000     0.816950000000     0.461890000000    -0.160898   
N29      N      0.263130000000     0.970460000000     0.469190000000    -0.161474   
N30      N      0.396630000000     0.564610000000     0.556340000000    -0.161413   
N31      N      0.352990000000     0.697390000000     0.535290000000    -0.16148    
N32      N      0.306710000000     0.837680000000     0.490380000000    -0.161445   
N33      N      0.036320000000     0.199870000000     0.972190000000    -0.161355   
N34      N      0.625530000000     0.335790000000     0.053110000000    -0.161591   
N35      N      0.887120000000     0.090010000000     0.025520000000    -0.161599   
N36      N      0.774830000000     0.445920000000     0.000290000000    -0.16167    
N37      N      0.903540000000     0.247690000000     0.986320000000    -0.161606   
N38      N      0.758470000000     0.288230000000     0.039160000000    -0.161689   
N39      N      0.933680000000     0.167560000000     0.692340000000    -0.160544   
N40      N      0.906890000000     0.124430000000     0.864430000000    -0.16149    
N41      N      0.754530000000     0.411130000000     0.161300000000    -0.161549   
N42      N      0.726500000000     0.367560000000     0.333130000000    -0.160586   
N43      N      0.019390000000     0.218190000000     0.563330000000    -0.161479   
N44      N      0.640310000000     0.316950000000     0.461890000000    -0.160887   
N45      N      0.763130000000     0.470460000000     0.469190000000    -0.161412   
N46      N      0.896630000000     0.064610000000     0.556340000000    -0.161385   
N47      N      0.852990000000     0.197390000000     0.535290000000    -0.161481   
N48      N      0.806710000000     0.337680000000     0.490380000000    -0.161436   
N49      N      0.036320000000     0.699870000000     0.972190000000    -0.161344   
N50      N      0.625530000000     0.835790000000     0.053110000000    -0.161594   
N51      N      0.887120000000     0.590010000000     0.025520000000    -0.161605   
N52      N      0.774830000000     0.945920000000     0.000290000000    -0.161642   
N53      N      0.903540000000     0.747690000000     0.986320000000    -0.161643   
N54      N      0.758470000000     0.788230000000     0.039160000000    -0.16169    
N55      N      0.933680000000     0.667560000000     0.692340000000    -0.160534   
N56      N      0.906890000000     0.624430000000     0.864430000000    -0.161478   
N57      N      0.754530000000     0.911130000000     0.161300000000    -0.161545   
N58      N      0.726500000000     0.867560000000     0.333130000000    -0.160613   
N59      N      0.019390000000     0.718190000000     0.563330000000    -0.161477   
N60      N      0.640310000000     0.816950000000     0.461890000000    -0.160882   
N61      N      0.763130000000     0.970460000000     0.469190000000    -0.161464   
N62      N      0.896630000000     0.564610000000     0.556340000000    -0.161389   
N63      N      0.852990000000     0.697390000000     0.535290000000    -0.161436   
N64      N      0.806710000000     0.837680000000     0.490380000000    -0.161432   
O1       O      0.250630000000     0.360000000000     0.383870000000    -0.246982   
O2       O      0.234540000000     0.419670000000     0.478110000000    -0.251572   
O3       O      0.284870000000     0.355600000000     0.442910000000    -0.249399   
O4       O      0.176870000000     0.364890000000     0.460330000000    -0.250086   
O5       O      0.193900000000     0.324080000000     0.445490000000    -0.256701   
O6       O      0.258420000000     0.353890000000     0.489700000000    -0.255545   
O7       O      0.210730000000     0.383260000000     0.384970000000    -0.254081   
O8       O      0.261760000000     0.429790000000     0.431880000000    -0.256833   
O9       O      0.409300000000     0.175010000000     0.641710000000    -0.247106   
O10      O      0.465840000000     0.211020000000     0.579880000000    -0.256643   
O11      O      0.374920000000     0.179490000000     0.582710000000    -0.249491   
O12      O      0.398020000000     0.105300000000     0.593640000000    -0.256808   
O13      O      0.425240000000     0.115390000000     0.547400000000    -0.251468   
O14      O      0.401260000000     0.181160000000     0.535860000000    -0.255582   
O15      O      0.449310000000     0.151910000000     0.640420000000    -0.254072   
O16      O      0.482880000000     0.170220000000     0.565010000000    -0.249909   
O17      O      0.412350000000     0.210740000000     0.948090000000    -0.249828   
O18      O      0.488180000000     0.194760000000     0.942930000000    -0.256087   
O19      O      0.399080000000     0.153650000000     0.910890000000    -0.251911   
O20      O      0.389960000000     0.137060000000     0.998390000000    -0.255494   
O21      O      0.429990000000     0.114610000000     0.992000000000    -0.251826   
O22      O      0.441560000000     0.134160000000     0.910230000000    -0.254414   
O23      O      0.424430000000     0.205120000000     0.000380000000    -0.254291   
O24      O      0.487250000000     0.169380000000     0.989720000000    -0.251732   
O25      O      0.249570000000     0.325120000000     0.077420000000    -0.249885   
O26      O      0.231890000000     0.421250000000     0.033670000000    -0.251864   
O27      O      0.262480000000     0.381960000000     0.114860000000    -0.251843   
O28      O      0.174610000000     0.366350000000     0.035690000000    -0.251701   
O29      O      0.173610000000     0.340950000000     0.082490000000    -0.256156   
O30      O      0.220100000000     0.401610000000     0.115300000000    -0.254396   
O31      O      0.237480000000     0.330740000000     0.025140000000    -0.254352   
O32      O      0.271940000000     0.398820000000     0.027330000000    -0.255508   
O33      O      0.250630000000     0.860000000000     0.383870000000    -0.246976   
O34      O      0.234540000000     0.919670000000     0.478110000000    -0.251559   
O35      O      0.284870000000     0.855600000000     0.442910000000    -0.249391   
O36      O      0.176870000000     0.864890000000     0.460330000000    -0.250071   
O37      O      0.193900000000     0.824080000000     0.445490000000    -0.256698   
O38      O      0.258420000000     0.853890000000     0.489700000000    -0.255537   
O39      O      0.210730000000     0.883260000000     0.384970000000    -0.254066   
O40      O      0.261760000000     0.929790000000     0.431880000000    -0.256821   
O41      O      0.409300000000     0.675010000000     0.641710000000    -0.247103   
O42      O      0.465840000000     0.711020000000     0.579880000000    -0.256638   
O43      O      0.374920000000     0.679490000000     0.582710000000    -0.24951    
O44      O      0.398010000000     0.605290000000     0.593640000000    -0.256798   
O45      O      0.425240000000     0.615390000000     0.547400000000    -0.251472   
O46      O      0.401260000000     0.681160000000     0.535860000000    -0.25568    
O47      O      0.449310000000     0.651910000000     0.640420000000    -0.254072   
O48      O      0.482880000000     0.670220000000     0.565010000000    -0.249899   
O49      O      0.412350000000     0.710740000000     0.948090000000    -0.24985    
O50      O      0.488180000000     0.694760000000     0.942930000000    -0.25606    
O51      O      0.399080000000     0.653650000000     0.910890000000    -0.251922   
O52      O      0.389960000000     0.637060000000     0.998390000000    -0.255514   
O53      O      0.429990000000     0.614600000000     0.992000000000    -0.251781   
O54      O      0.441560000000     0.634160000000     0.910230000000    -0.254397   
O55      O      0.424440000000     0.705130000000     0.000380000000    -0.254319   
O56      O      0.487250000000     0.669380000000     0.989720000000    -0.251704   
O57      O      0.249570000000     0.825120000000     0.077420000000    -0.24988    
O58      O      0.231890000000     0.921250000000     0.033670000000    -0.251841   
O59      O      0.262480000000     0.881960000000     0.114860000000    -0.251834   
O60      O      0.174610000000     0.866350000000     0.035690000000    -0.25169    
O61      O      0.173610000000     0.840950000000     0.082490000000    -0.256152   
O62      O      0.220100000000     0.901610000000     0.115300000000    -0.254377   
O63      O      0.237480000000     0.830740000000     0.025140000000    -0.254348   
O64      O      0.271940000000     0.898820000000     0.027330000000    -0.255498   
O65      O      0.750630000000     0.360000000000     0.383870000000    -0.246954   
O66      O      0.734540000000     0.419670000000     0.478110000000    -0.251539   
O67      O      0.784870000000     0.355600000000     0.442910000000    -0.249369   
O68      O      0.676870000000     0.364890000000     0.460330000000    -0.250041   
O69      O      0.693900000000     0.324080000000     0.445490000000    -0.256678   
O70      O      0.758420000000     0.353890000000     0.489700000000    -0.255525   
O71      O      0.710730000000     0.383260000000     0.384970000000    -0.254041   
O72      O      0.761760000000     0.429790000000     0.431880000000    -0.256803   
O73      O      0.909300000000     0.175010000000     0.641710000000    -0.247052   
O74      O      0.965840000000     0.211020000000     0.579880000000    -0.256553   
O75      O      0.874920000000     0.179490000000     0.582710000000    -0.249479   
O76      O      0.898020000000     0.105300000000     0.593640000000    -0.256738   
O77      O      0.925240000000     0.115390000000     0.547400000000    -0.251389   
O78      O      0.901260000000     0.181160000000     0.535860000000    -0.255583   
O79      O      0.949310000000     0.151910000000     0.640420000000    -0.253944   
O80      O      0.982880000000     0.170220000000     0.565010000000    -0.249779   
O81      O      0.912350000000     0.210740000000     0.948090000000    -0.249755   
O82      O      0.988180000000     0.194760000000     0.942930000000    -0.254657   
O83      O      0.899080000000     0.153650000000     0.910890000000    -0.2519     
O84      O      0.889960000000     0.137060000000     0.998390000000    -0.25549    
O85      O      0.929990000000     0.114610000000     0.992000000000    -0.251723   
O86      O      0.941560000000     0.134160000000     0.910230000000    -0.254281   
O87      O      0.924440000000     0.205120000000     0.000380000000    -0.25411    
O88      O      0.987260000000     0.169380000000     0.989720000000    -0.250308   
O89      O      0.749570000000     0.325120000000     0.077420000000    -0.249861   
O90      O      0.731890000000     0.421250000000     0.033670000000    -0.251852   
O91      O      0.762480000000     0.381960000000     0.114860000000    -0.251817   
O92      O      0.674610000000     0.366350000000     0.035690000000    -0.251662   
O93      O      0.673610000000     0.340950000000     0.082490000000    -0.256125   
O94      O      0.720100000000     0.401610000000     0.115300000000    -0.254357   
O95      O      0.737480000000     0.330740000000     0.025140000000    -0.254329   
O96      O      0.771930000000     0.398820000000     0.027330000000    -0.255569   
O97      O      0.750620000000     0.860000000000     0.383870000000    -0.247058   
O98      O      0.734540000000     0.919670000000     0.478110000000    -0.251527   
O99      O      0.784870000000     0.855600000000     0.442910000000    -0.249361   
O100     O      0.676870000000     0.864890000000     0.460330000000    -0.250025   
O101     O      0.693900000000     0.824080000000     0.445490000000    -0.256671   
O102     O      0.758420000000     0.853890000000     0.489700000000    -0.255517   
O103     O      0.710730000000     0.883260000000     0.384970000000    -0.254061   
O104     O      0.761760000000     0.929790000000     0.431880000000    -0.256791   
O105     O      0.909300000000     0.675010000000     0.641710000000    -0.24705    
O106     O      0.965840000000     0.711020000000     0.579880000000    -0.256547   
O107     O      0.874920000000     0.679490000000     0.582710000000    -0.24943    
O108     O      0.898020000000     0.605290000000     0.593640000000    -0.256782   
O109     O      0.925240000000     0.615390000000     0.547400000000    -0.25141    
O110     O      0.901270000000     0.681160000000     0.535860000000    -0.255466   
O111     O      0.949310000000     0.651910000000     0.640420000000    -0.253937   
O112     O      0.982880000000     0.670220000000     0.565010000000    -0.24977    
O113     O      0.912350000000     0.710740000000     0.948090000000    -0.249819   
O114     O      0.988180000000     0.694760000000     0.942930000000    -0.254629   
O115     O      0.899080000000     0.653650000000     0.910890000000    -0.251836   
O116     O      0.889960000000     0.637060000000     0.998390000000    -0.255483   
O117     O      0.929990000000     0.614600000000     0.992000000000    -0.251679   
O118     O      0.941560000000     0.634160000000     0.910230000000    -0.254359   
O119     O      0.924430000000     0.705130000000     0.000380000000    -0.254252   
O120     O      0.987250000000     0.669380000000     0.989720000000    -0.250262   
O121     O      0.749570000000     0.825120000000     0.077420000000    -0.249858   
O122     O      0.731890000000     0.921250000000     0.033670000000    -0.251807   
O123     O      0.762480000000     0.881960000000     0.114860000000    -0.251806   
O124     O      0.674600000000     0.866350000000     0.035690000000    -0.251699   
O125     O      0.673610000000     0.840950000000     0.082490000000    -0.256146   
O126     O      0.720100000000     0.901610000000     0.115300000000    -0.25434    
O127     O      0.737480000000     0.830740000000     0.025140000000    -0.254332   
O128     O      0.771940000000     0.898820000000     0.027330000000    -0.255473   


