data_structure

_audit_creation_method RASPA-1.0
_audit_creation_date 2023-5-22
_audit_author_name 'Poobodin Mano'

_cell_length_a    37.0447
_cell_length_b    35.6958
_cell_length_c    44.7593
_cell_angle_alpha 89.9993
_cell_angle_beta  89.9992
_cell_angle_gamma 119.962
_cell_volume      51277.1

_symmetry_cell_setting          triclinic
_symmetry_space_group_name_Hall 'P 1'
_symmetry_space_group_name_H-M  'P 1'
_symmetry_Int_Tables_number     1

_symmetry_equiv_pos_as_xyz 'x,y,z'

loop_
_atom_site_label
_atom_site_type_symbol
_atom_site_fract_x
_atom_site_fract_y
_atom_site_fract_z
_atom_site_charge
C1       C      0.597760000000     0.662070000000     0.176250000000     0.34374    
C2       C      0.640710000000     0.770720000000     0.253740000000     0.343037   
C3       C      0.499670000000     0.683470000000     0.227620000000     0.341249   
C4       C      0.571660000000     0.624700000000     0.278330000000     0.34194    
C5       C      0.295900000000     0.642310000000     0.091550000000     0.343451   
C6       C      0.159850000000     0.564280000000     0.546380000000     0.342437   
C7       C      0.183410000000     0.644170000000     0.134730000000     0.341374   
C8       C      0.239380000000     0.714870000000     0.040710000000     0.344395   
C9       C      0.592980000000     0.931850000000     0.376780000000     0.340761   
C10      C      0.624960000000     0.025850000000     0.452020000000     0.339902   
C11      C      0.511840000000     0.003000000000     0.387600000000     0.340057   
C12      C      0.487360000000     0.899750000000     0.453440000000     0.342783   
C13      C      0.046140000000     0.594820000000     0.298090000000     0.341917   
C14      C      0.895220000000     0.493250000000     0.318570000000     0.341886   
C15      C      0.974530000000     0.455180000000     0.260970000000     0.342094   
C16      C      0.002980000000     0.495460000000     0.369520000000     0.34035    
C17      C      0.582730000000     0.468460000000     0.429580000000     0.341915   
C18      C      0.616670000000     0.448070000000     0.531320000000     0.343249   
C19      C      0.717880000000     0.513610000000     0.455650000000     0.343676   
C20      C      0.648880000000     0.584860000000     0.995320000000     0.340109   
C21      C      0.600720000000     0.268920000000     0.171410000000     0.342492   
C22      C      0.606950000000     0.171000000000     0.227910000000     0.33956    
C23      C      0.642290000000     0.177980000000     0.122120000000     0.339077   
C24      C      0.736480000000     0.274810000000     0.186140000000     0.340372   
C25      C      0.592780000000     0.332550000000     0.182250000000     0.0109198  
C26      C      0.575170000000     0.375650000000     0.554160000000     0.00760258 
C27      C      0.629340000000     0.438720000000     0.084300000000     0.00757802 
C28      C      0.545420000000     0.361300000000     0.080930000000    -0.100121   
C29      C      0.600120000000     0.365180000000     0.157470000000    -0.0986002  
C30      C      0.599480000000     0.424550000000     0.110930000000    -0.100159   
C31      C      0.569020000000     0.347840000000     0.131490000000     0.0203593  
C32      C      0.570270000000     0.375870000000     0.109860000000     0.0193905  
C33      C      0.538390000000     0.271100000000     0.153710000000     0.0110489  
C34      C      0.542390000000     0.298960000000     0.126560000000    -0.0986987  
C35      C      0.822600000000     0.446040000000     0.335620000000     0.010535   
C36      C      0.784280000000     0.557330000000     0.428340000000     0.0103599  
C37      C      0.765780000000     0.484920000000     0.447770000000     0.0105534  
C38      C      0.788890000000     0.545210000000     0.396320000000    -0.0990142  
C39      C      0.812670000000     0.455460000000     0.366960000000    -0.0985808  
C40      C      0.768380000000     0.468260000000     0.416830000000    -0.0991769  
C41      C      0.810400000000     0.497140000000     0.369340000000     0.0194349  
C42      C      0.792650000000     0.504420000000     0.394100000000     0.0194182  
C43      C      0.844750000000     0.519590000000     0.317310000000     0.0106381  
C44      C      0.835430000000     0.533960000000     0.347150000000    -0.0985916  
C45      C      0.964410000000     0.385790000000     0.241030000000     0.010658   
C46      C      0.803390000000     0.342660000000     0.178620000000     0.0070659  
C47      C      0.798630000000     0.284290000000     0.213260000000     0.00734745 
C48      C      0.845210000000     0.349820000000     0.166800000000    -0.0998567  
C49      C      0.920380000000     0.352910000000     0.230510000000    -0.0984018  
C50      C      0.840160000000     0.291200000000     0.201170000000    -0.099976   
C51      C      0.904460000000     0.366610000000     0.203330000000     0.0202477  
C52      C      0.866770000000     0.337710000000     0.190720000000     0.0192502  
C53      C      0.970350000000     0.442230000000     0.206370000000     0.0107285  
C54      C      0.926450000000     0.414190000000     0.193730000000    -0.0984458  
C55      C      0.597340000000     0.163920000000     0.282770000000     0.00791114 
C56      C      0.464630000000     0.001020000000     0.347650000000     0.01123    
C57      C      0.500310000000     0.065010000000     0.380150000000     0.0111664  
C58      C      0.485730000000     0.026380000000     0.319230000000    -0.0985506  
C59      C      0.556910000000     0.150350000000     0.299950000000    -0.0998276  
C60      C      0.524330000000     0.095380000000     0.354290000000    -0.0986225  
C61      C      0.528210000000     0.101490000000     0.298210000000     0.0191114  
C62      C      0.511340000000     0.075640000000     0.322970000000     0.0203874  
C63      C      0.560480000000     0.098640000000     0.249540000000     0.00785957 
C64      C      0.519570000000     0.084170000000     0.266300000000    -0.0997457  
C65      C      0.638050000000     0.172790000000     0.066890000000     0.00842231 
C66      C      0.672440000000     0.041970000000     0.495100000000     0.0113035  
C67      C      0.677950000000     0.101580000000     0.464030000000     0.0106801  
C68      C      0.661130000000     0.057930000000     0.523340000000    -0.098664   
C69      C      0.668250000000     0.168590000000     0.045630000000    -0.0994097  
C70      C      0.667930000000     0.122660000000     0.490150000000    -0.0984125  
C71      C      0.663110000000     0.123350000000     0.046370000000     0.0189761  
C72      C      0.666580000000     0.103350000000     0.521060000000     0.0198     
C73      C      0.629980000000     0.110490000000     0.097570000000     0.00859561 
C74      C      0.660540000000     0.105010000000     0.077640000000    -0.0995189  
C75      C      0.007610000000     0.510420000000     0.423310000000     0.00848912 
C76      C      0.144110000000     0.511470000000     0.505510000000     0.0103014  
C77      C      0.086690000000     0.508600000000     0.535700000000     0.0100921  
C78      C      0.126970000000     0.519190000000     0.476480000000    -0.0996015  
C79      C      0.014660000000     0.493840000000     0.453140000000    -0.100605   
C80      C      0.065910000000     0.515360000000     0.508240000000    -0.0992523  
C81      C      0.056550000000     0.495460000000     0.453520000000     0.0190608  
C82      C      0.080870000000     0.506160000000     0.478730000000     0.0188093  
C83      C      0.034940000000     0.463450000000     0.401460000000     0.00902149 
C84      C      0.070280000000     0.484290000000     0.424420000000    -0.100146   
C85      C      0.180730000000     0.634700000000     0.189600000000     0.00771747 
C86      C      0.072220000000     0.666400000000     0.274170000000     0.0107899  
C87      C      0.121390000000     0.648960000000     0.298880000000     0.0115481  
C88      C      0.092410000000     0.671850000000     0.243390000000    -0.0984582  
C89      C      0.191500000000     0.669930000000     0.213040000000    -0.0999257  
C90      C      0.144790000000     0.651990000000     0.270050000000    -0.0986125  
C91      C      0.154790000000     0.677490000000     0.216780000000     0.0191806  
C92      C      0.132820000000     0.669830000000     0.242990000000     0.0205133  
C93      C      0.132740000000     0.655590000000     0.163800000000     0.00770912 
C94      C      0.142510000000     0.690220000000     0.187640000000    -0.0999725  
C95      C      0.446650000000     0.877850000000     0.500550000000     0.00948086 
C96      C      0.252320000000     0.747130000000     0.490270000000     0.011802   
C97      C      0.270900000000     0.794030000000     0.034520000000     0.0111348  
C98      C      0.297520000000     0.764560000000     0.480720000000    -0.0989046  
C99      C      0.402200000000     0.870320000000     0.502270000000    -0.0993808  
C100     C      0.317670000000     0.816990000000     0.527530000000    -0.0985211  
C101     C      0.369980000000     0.827960000000     0.487450000000     0.0191122  
C102     C      0.329310000000     0.805590000000     0.497250000000     0.020065   
C103     C      0.427910000000     0.825270000000     0.458870000000     0.00981464 
C104     C      0.383080000000     0.816460000000     0.457970000000    -0.0994378  
C105     C      0.616450000000     0.630010000000     0.003750000000     0.0117681  
C106     C      0.648750000000     0.659310000000     0.141770000000     0.00888767 
C107     C      0.573410000000     0.624430000000     0.127730000000     0.00916449 
C108     C      0.661910000000     0.681360000000     0.111190000000    -0.0999162  
C109     C      0.602110000000     0.628800000000     0.035920000000    -0.0987143  
C110     C      0.584390000000     0.646460000000     0.097150000000    -0.0999574  
C111     C      0.637450000000     0.651880000000     0.058680000000     0.0199013  
C112     C      0.628250000000     0.657770000000     0.087520000000     0.0193244  
C113     C      0.689760000000     0.657850000000     0.017700000000     0.0107144  
C114     C      0.681570000000     0.661230000000     0.050910000000    -0.0983579  
C115     C      0.516110000000     0.452990000000     0.406150000000     0.0110557  
C116     C      0.594100000000     0.574590000000     0.297640000000     0.00826603 
C117     C      0.545690000000     0.590170000000     0.327650000000     0.00836427 
C118     C      0.566950000000     0.526180000000     0.303940000000    -0.0999956  
C119     C      0.519010000000     0.487650000000     0.384580000000    -0.0985916  
C120     C      0.517910000000     0.541930000000     0.334500000000    -0.100034   
C121     C      0.542640000000     0.492000000000     0.355470000000     0.0198165  
C122     C      0.542960000000     0.518640000000     0.333090000000     0.0193444  
C123     C      0.566060000000     0.440440000000     0.377770000000     0.0109334  
C124     C      0.571780000000     0.473110000000     0.353420000000    -0.0983642  
C125     C      0.611980000000     0.923570000000     0.325160000000     0.00760243 
C126     C      0.693220000000     0.816870000000     0.291340000000     0.0113866  
C127     C      0.678370000000     0.850610000000     0.248580000000     0.0106636  
C128     C      0.679580000000     0.838670000000     0.314550000000    -0.0986993  
C129     C      0.654150000000     0.933750000000     0.312050000000    -0.100224   
C130     C      0.665450000000     0.876710000000     0.268700000000    -0.0983506  
C131     C      0.665190000000     0.899850000000     0.321850000000     0.0195272  
C132     C      0.672350000000     0.874480000000     0.302310000000     0.0201969  
C133     C      0.622580000000     0.884200000000     0.368200000000     0.00761852 
C134     C      0.665220000000     0.895360000000     0.355660000000    -0.10012    
C135     C      0.459940000000     0.719620000000     0.213460000000     0.0107137  
C136     C      0.333180000000     0.605610000000     0.110490000000     0.0106772  
C137     C      0.372500000000     0.683510000000     0.098210000000     0.0107918  
C138     C      0.347400000000     0.613490000000     0.143150000000    -0.0990101  
C139     C      0.444380000000     0.712380000000     0.181150000000    -0.0987173  
C140     C      0.388650000000     0.696470000000     0.130160000000    -0.0990218  
C141     C      0.407980000000     0.666770000000     0.174820000000     0.0192727  
C142     C      0.384330000000     0.658840000000     0.149340000000     0.0192269  
C143     C      0.422580000000     0.641660000000     0.225130000000     0.0109281  
C144     C      0.403920000000     0.628960000000     0.193730000000    -0.0989057  
C145     C      0.597770000000     0.662070000000     0.676250000000     0.343703   
C146     C      0.640710000000     0.770720000000     0.753740000000     0.343034   
C147     C      0.499670000000     0.683470000000     0.727620000000     0.341248   
C148     C      0.571660000000     0.624700000000     0.778330000000     0.341935   
C149     C      0.295900000000     0.642310000000     0.591550000000     0.343447   
C150     C      0.159850000000     0.564280000000     0.046380000000     0.342452   
C151     C      0.183410000000     0.644170000000     0.634730000000     0.341392   
C152     C      0.239380000000     0.714870000000     0.540710000000     0.344383   
C153     C      0.592980000000     0.931850000000     0.876780000000     0.34083    
C154     C      0.624960000000     0.025850000000     0.952020000000     0.339886   
C155     C      0.511840000000     0.003000000000     0.887600000000     0.340056   
C156     C      0.487360000000     0.899750000000     0.953440000000     0.342742   
C157     C      0.046140000000     0.594820000000     0.798100000000     0.341933   
C158     C      0.895220000000     0.493250000000     0.818570000000     0.341886   
C159     C      0.974530000000     0.455180000000     0.760970000000     0.342097   
C160     C      0.002980000000     0.495460000000     0.869520000000     0.34035    
C161     C      0.582730000000     0.468460000000     0.929580000000     0.341914   
C162     C      0.616670000000     0.448070000000     0.031320000000     0.343239   
C163     C      0.717880000000     0.513610000000     0.955650000000     0.343682   
C164     C      0.648880000000     0.584860000000     0.495320000000     0.340423   
C165     C      0.600720000000     0.268920000000     0.671410000000     0.342405   
C166     C      0.606950000000     0.171000000000     0.727910000000     0.339559   
C167     C      0.642290000000     0.177980000000     0.622120000000     0.339093   
C168     C      0.736480000000     0.274810000000     0.686140000000     0.340374   
C169     C      0.592780000000     0.332550000000     0.682250000000     0.0109395  
C170     C      0.575170000000     0.375650000000     0.054160000000     0.00759316 
C171     C      0.629340000000     0.438720000000     0.584300000000     0.00756099 
C172     C      0.545420000000     0.361300000000     0.580920000000    -0.100049   
C173     C      0.600120000000     0.365180000000     0.657470000000    -0.0986657  
C174     C      0.599480000000     0.424550000000     0.610930000000    -0.100078   
C175     C      0.569020000000     0.347840000000     0.631490000000     0.0203955  
C176     C      0.570270000000     0.375870000000     0.609860000000     0.0193137  
C177     C      0.538390000000     0.271100000000     0.653710000000     0.0110502  
C178     C      0.542390000000     0.298960000000     0.626560000000    -0.0987102  
C179     C      0.822600000000     0.446040000000     0.835620000000     0.010533   
C180     C      0.784280000000     0.557330000000     0.928340000000     0.0104013  
C181     C      0.765780000000     0.484920000000     0.947760000000     0.0106441  
C182     C      0.788890000000     0.545210000000     0.896320000000    -0.0990844  
C183     C      0.812670000000     0.455460000000     0.866960000000    -0.0985724  
C184     C      0.768380000000     0.468260000000     0.916830000000    -0.099227   
C185     C      0.810400000000     0.497140000000     0.869340000000     0.019419   
C186     C      0.792650000000     0.504420000000     0.894100000000     0.0194416  
C187     C      0.844750000000     0.519590000000     0.817310000000     0.0106558  
C188     C      0.835430000000     0.533960000000     0.847150000000    -0.0985891  
C189     C      0.964410000000     0.385790000000     0.741030000000     0.0106318  
C190     C      0.803390000000     0.342660000000     0.678620000000     0.00706551 
C191     C      0.798630000000     0.284290000000     0.713260000000     0.00737587 
C192     C      0.845210000000     0.349820000000     0.666800000000    -0.099852   
C193     C      0.920380000000     0.352910000000     0.730510000000    -0.098396   
C194     C      0.840160000000     0.291200000000     0.701170000000    -0.0999795  
C195     C      0.904460000000     0.366610000000     0.703330000000     0.020252   
C196     C      0.866770000000     0.337710000000     0.690720000000     0.019243   
C197     C      0.970350000000     0.442230000000     0.706380000000     0.0108243  
C198     C      0.926450000000     0.414190000000     0.693730000000    -0.0984847  
C199     C      0.597340000000     0.163920000000     0.782770000000     0.00791313 
C200     C      0.464630000000     0.001020000000     0.847650000000     0.0112297  
C201     C      0.500310000000     0.065010000000     0.880150000000     0.0111674  
C202     C      0.485730000000     0.026380000000     0.819230000000    -0.0985453  
C203     C      0.556910000000     0.150350000000     0.799950000000    -0.0998453  
C204     C      0.524330000000     0.095380000000     0.854290000000    -0.098617   
C205     C      0.528210000000     0.101490000000     0.798200000000     0.0191455  
C206     C      0.511340000000     0.075640000000     0.822970000000     0.0203701  
C207     C      0.560480000000     0.098640000000     0.749540000000     0.0078777  
C208     C      0.519570000000     0.084170000000     0.766300000000    -0.0997762  
C209     C      0.638050000000     0.172790000000     0.566890000000     0.00845229 
C210     C      0.672440000000     0.041970000000     0.995100000000     0.0111029  
C211     C      0.677950000000     0.101580000000     0.964030000000     0.0107229  
C212     C      0.661130000000     0.057930000000     0.023340000000    -0.0984948  
C213     C      0.668260000000     0.168590000000     0.545630000000    -0.0995356  
C214     C      0.667930000000     0.122660000000     0.990150000000    -0.0986515  
C215     C      0.663110000000     0.123350000000     0.546370000000     0.0190403  
C216     C      0.666580000000     0.103350000000     0.021060000000     0.0200338  
C217     C      0.629980000000     0.110490000000     0.597570000000     0.00855745 
C218     C      0.660540000000     0.105010000000     0.577640000000    -0.0995366  
C219     C      0.007610000000     0.510420000000     0.923310000000     0.00849413 
C220     C      0.144110000000     0.511470000000     0.005510000000     0.0104942  
C221     C      0.086690000000     0.508600000000     0.035700000000     0.0100506  
C222     C      0.126970000000     0.519190000000     0.976480000000    -0.0997724  
C223     C      0.014660000000     0.493840000000     0.953140000000    -0.100628   
C224     C      0.065910000000     0.515360000000     0.008240000000    -0.0990164  
C225     C      0.056550000000     0.495460000000     0.953520000000     0.019086   
C226     C      0.080870000000     0.506160000000     0.978730000000     0.0185849  
C227     C      0.034940000000     0.463450000000     0.901470000000     0.00906156 
C228     C      0.070280000000     0.484290000000     0.924420000000    -0.100168   
C229     C      0.180730000000     0.634700000000     0.689590000000     0.0077986  
C230     C      0.072220000000     0.666400000000     0.774170000000     0.0107605  
C231     C      0.121390000000     0.648960000000     0.798880000000     0.011542   
C232     C      0.092410000000     0.671850000000     0.743390000000    -0.0984397  
C233     C      0.191500000000     0.669930000000     0.713040000000    -0.100016   
C234     C      0.144790000000     0.651990000000     0.770050000000    -0.0986021  
C235     C      0.154790000000     0.677490000000     0.716780000000     0.0192082  
C236     C      0.132820000000     0.669830000000     0.742990000000     0.0204972  
C237     C      0.132740000000     0.655590000000     0.663800000000     0.00771596 
C238     C      0.142510000000     0.690220000000     0.687640000000    -0.0999838  
C239     C      0.446650000000     0.877850000000     0.000550000000     0.00961585 
C240     C      0.252320000000     0.747130000000     0.990270000000     0.0115775  
C241     C      0.270900000000     0.794030000000     0.534520000000     0.011174   
C242     C      0.297520000000     0.764560000000     0.980720000000    -0.0988333  
C243     C      0.402200000000     0.870320000000     0.002270000000    -0.0988483  
C244     C      0.317670000000     0.816990000000     0.027530000000    -0.0982922  
C245     C      0.369980000000     0.827960000000     0.987450000000     0.0188481  
C246     C      0.329310000000     0.805590000000     0.997250000000     0.0198771  
C247     C      0.427910000000     0.825270000000     0.958870000000     0.00969385 
C248     C      0.383080000000     0.816460000000     0.957970000000    -0.0993446  
C249     C      0.616450000000     0.630010000000     0.503750000000     0.0111456  
C250     C      0.648750000000     0.659310000000     0.641770000000     0.00890704 
C251     C      0.573410000000     0.624430000000     0.627730000000     0.0091757  
C252     C      0.661910000000     0.681360000000     0.611190000000    -0.0999328  
C253     C      0.602110000000     0.628800000000     0.535920000000    -0.098525   
C254     C      0.584390000000     0.646460000000     0.597150000000    -0.0999739  
C255     C      0.637450000000     0.651880000000     0.558680000000     0.0198019  
C256     C      0.628250000000     0.657770000000     0.587520000000     0.019353   
C257     C      0.689770000000     0.657850000000     0.517700000000     0.0106541  
C258     C      0.681580000000     0.661230000000     0.550910000000    -0.0983554  
C259     C      0.516110000000     0.452990000000     0.906150000000     0.0110433  
C260     C      0.594100000000     0.574590000000     0.797640000000     0.00826098 
C261     C      0.545690000000     0.590170000000     0.827660000000     0.00823838 
C262     C      0.566950000000     0.526180000000     0.803940000000    -0.0999865  
C263     C      0.519020000000     0.487650000000     0.884580000000    -0.0985246  
C264     C      0.517910000000     0.541930000000     0.834500000000    -0.0999781  
C265     C      0.542640000000     0.492000000000     0.855470000000     0.01981    
C266     C      0.542960000000     0.518640000000     0.833090000000     0.0193287  
C267     C      0.566060000000     0.440440000000     0.877770000000     0.0109329  
C268     C      0.571780000000     0.473110000000     0.853420000000    -0.0983608  
C269     C      0.611980000000     0.923570000000     0.825160000000     0.00752188 
C270     C      0.693220000000     0.816870000000     0.791350000000     0.0113235  
C271     C      0.678370000000     0.850610000000     0.748580000000     0.0106625  
C272     C      0.679580000000     0.838670000000     0.814550000000    -0.0986731  
C273     C      0.654150000000     0.933750000000     0.812050000000    -0.10019    
C274     C      0.665450000000     0.876710000000     0.768700000000    -0.0983479  
C275     C      0.665190000000     0.899850000000     0.821850000000     0.0195132  
C276     C      0.672350000000     0.874480000000     0.802310000000     0.0201926  
C277     C      0.622580000000     0.884200000000     0.868200000000     0.00764048 
C278     C      0.665220000000     0.895360000000     0.855660000000    -0.100091   
C279     C      0.459940000000     0.719620000000     0.713460000000     0.0107149  
C280     C      0.333180000000     0.605610000000     0.610490000000     0.0106738  
C281     C      0.372500000000     0.683510000000     0.598210000000     0.0108444  
C282     C      0.347400000000     0.613490000000     0.643150000000    -0.0989796  
C283     C      0.444380000000     0.712380000000     0.681150000000    -0.0987207  
C284     C      0.388650000000     0.696480000000     0.630150000000    -0.0990608  
C285     C      0.407980000000     0.666770000000     0.674820000000     0.0192802  
C286     C      0.384330000000     0.658840000000     0.649340000000     0.019189   
C287     C      0.422580000000     0.641660000000     0.725130000000     0.0109291  
C288     C      0.403920000000     0.628960000000     0.693730000000    -0.0989078  
Cd1      Cd     0.578300000000     0.685770000000     0.233390000000     0.504736   
Cd2      Cd     0.219120000000     0.641100000000     0.078140000000     0.505179   
Cd3      Cd     0.554300000000     0.964430000000     0.417430000000     0.504958   
Cd4      Cd     0.979010000000     0.508780000000     0.310980000000     0.505286   
Cd5      Cd     0.640750000000     0.502780000000     0.478810000000     0.504627   
Cd6      Cd     0.647470000000     0.224240000000     0.176400000000     0.505528   
Cd7      Cd     0.578300000000     0.685770000000     0.733390000000     0.504735   
Cd8      Cd     0.219120000000     0.641100000000     0.578140000000     0.505146   
Cd9      Cd     0.554300000000     0.964430000000     0.917430000000     0.504947   
Cd10     Cd     0.979010000000     0.508780000000     0.810980000000     0.505284   
Cd11     Cd     0.640750000000     0.502780000000     0.978800000000     0.504487   
Cd12     Cd     0.647480000000     0.224240000000     0.676400000000     0.505514   
H1       H      0.599030000000     0.392460000000     0.168520000000     0.0457004  
H2       H      0.591770000000     0.356890000000     0.554260000000     0.036344   
H3       H      0.514510000000     0.270730000000     0.169000000000     0.030128   
H4       H      0.510100000000     0.290330000000     0.120380000000     0.0457449  
H5       H      0.523980000000     0.326070000000     0.078970000000     0.0461889  
H6       H      0.618340000000     0.436770000000     0.131500000000     0.0462197  
H7       H      0.621760000000     0.344210000000     0.195600000000     0.0430035  
H8       H      0.556450000000     0.367350000000     0.533290000000     0.0442861  
H9       H      0.556200000000     0.289770000000     0.107870000000     0.0575961  
H10      H      0.580560000000     0.440780000000     0.109530000000     0.0550741  
H11      H      0.526980000000     0.237250000000     0.146370000000     0.0425272  
H12      H      0.650650000000     0.425460000000     0.087200000000     0.0364223  
H13      H      0.631940000000     0.377270000000     0.148280000000     0.057489   
H14      H      0.525780000000     0.376700000000     0.079320000000     0.0551914  
H15      H      0.648720000000     0.474570000000     0.084530000000     0.0440618  
H16      H      0.568330000000     0.330970000000     0.197510000000     0.0300494  
H17      H      0.782470000000     0.426870000000     0.373340000000     0.0466207  
H18      H      0.815230000000     0.571550000000     0.439470000000     0.0326735  
H19      H      0.816190000000     0.506070000000     0.303250000000     0.0316222  
H20      H      0.818360000000     0.551250000000     0.341490000000     0.0465017  
H21      H      0.816790000000     0.574020000000     0.387190000000     0.0467353  
H22      H      0.783010000000     0.448030000000     0.420390000000     0.0464758  
H23      H      0.831020000000     0.420230000000     0.336860000000     0.04298    
H24      H      0.775130000000     0.582610000000     0.427800000000     0.0438774  
H25      H      0.865480000000     0.557280000000     0.357850000000     0.0582641  
H26      H      0.736310000000     0.447200000000     0.408150000000     0.0579446  
H27      H      0.869700000000     0.548130000000     0.305390000000     0.0439123  
H28      H      0.796960000000     0.498970000000     0.458530000000     0.032303   
H29      H      0.837110000000     0.457970000000     0.382580000000     0.0575227  
H30      H      0.761310000000     0.539890000000     0.383110000000     0.0571279  
H31      H      0.743350000000     0.457340000000     0.461770000000     0.0435967  
H32      H      0.794000000000     0.433650000000     0.321680000000     0.0321923  
H33      H      0.920870000000     0.322720000000     0.225390000000     0.0458846  
H34      H      0.809640000000     0.366960000000     0.196390000000     0.0368513  
H35      H      0.992390000000     0.436730000000     0.192710000000     0.0312261  
H36      H      0.929590000000     0.416600000000     0.169020000000     0.0460728  
H37      H      0.863300000000     0.383480000000     0.158620000000     0.0462466  
H38      H      0.854520000000     0.280800000000     0.218540000000     0.0461432  
H39      H      0.968750000000     0.378710000000     0.264530000000     0.0435471  
H40      H      0.786870000000     0.348670000000     0.160150000000     0.0447299  
H41      H      0.907030000000     0.428300000000     0.200940000000     0.0577     
H42      H      0.833930000000     0.269340000000     0.181770000000     0.0548452  
H43      H      0.979730000000     0.476960000000     0.204240000000     0.0425945  
H44      H      0.804740000000     0.303380000000     0.234170000000     0.0366332  
H45      H      0.898520000000     0.346470000000     0.249390000000     0.0575982  
H46      H      0.839340000000     0.328670000000     0.147030000000     0.0545116  
H47      H      0.778740000000     0.249590000000     0.219190000000     0.0447003  
H48      H      0.987170000000     0.381910000000     0.227030000000     0.0309593  
H49      H      0.565820000000     0.163380000000     0.322850000000     0.0462981  
H50      H      0.435180000000     0.001700000000     0.350980000000     0.0295528  
H51      H      0.576170000000     0.081980000000     0.259550000000     0.0357752  
H52      H      0.501030000000     0.048560000000     0.264450000000     0.0462102  
H53      H      0.460440000000     0.017830000000     0.302670000000     0.0456154  
H54      H      0.519770000000     0.123750000000     0.356430000000     0.0458413  
H55      H      0.616400000000     0.199800000000     0.282810000000     0.0444752  
H56      H      0.456160000000     0.966640000000     0.344780000000     0.0422305  
H57      H      0.501680000000     0.097220000000     0.254650000000     0.0556691  
H58      H      0.557980000000     0.106420000000     0.357320000000     0.058103   
H59      H      0.553240000000     0.087990000000     0.225890000000     0.0449372  
H60      H      0.470180000000     0.064500000000     0.382780000000     0.0298956  
H61      H      0.540670000000     0.166280000000     0.289750000000     0.0554762  
H62      H      0.506770000000     0.014930000000     0.310740000000     0.0581554  
H63      H      0.518120000000     0.077820000000     0.401270000000     0.0425328  
H64      H      0.615290000000     0.151280000000     0.294860000000     0.0360054  
H65      H      0.662640000000     0.178100000000     0.023320000000     0.046411   
H66      H      0.706970000000     0.057150000000     0.494070000000     0.0301046  
H67      H      0.597840000000     0.088730000000     0.089160000000     0.0349671  
H68      H      0.649870000000     0.069990000000     0.077870000000     0.0464354  
H69      H      0.681220000000     0.056920000000     0.541390000000     0.0459117  
H70      H      0.692100000000     0.157470000000     0.489740000000     0.0457565  
H71      H      0.646210000000     0.207270000000     0.067800000000     0.0440716  
H72      H      0.659260000000     0.006370000000     0.496420000000     0.0427505  
H73      H      0.692070000000     0.122190000000     0.087890000000     0.0554906  
H74      H      0.637050000000     0.119740000000     0.485870000000     0.0576781  
H75      H      0.631800000000     0.099860000000     0.120600000000     0.0447497  
H76      H      0.712310000000     0.115360000000     0.463130000000     0.0303824  
H77      H      0.700760000000     0.192330000000     0.052190000000     0.0551352  
H78      H      0.628020000000     0.034780000000     0.528900000000     0.0586087  
H79      H      0.668270000000     0.109910000000     0.442680000000     0.0428792  
H80      H      0.606070000000     0.153960000000     0.057450000000     0.0348644  
H81      H      0.012230000000     0.514430000000     0.470670000000     0.0467353  
H82      H      0.130580000000     0.476000000000     0.508470000000     0.0313038  
H83      H      0.047800000000     0.458840000000     0.380220000000     0.0445144  
H84      H      0.096430000000     0.514220000000     0.414670000000     0.0556794  
H85      H      0.133250000000     0.501640000000     0.458690000000     0.0462483  
H86      H      0.031850000000     0.493520000000     0.511220000000     0.0458181  
H87      H      0.975290000000     0.504950000000     0.422810000000     0.0397135  
H88      H      0.178480000000     0.526190000000     0.503690000000     0.0435046  
H89      H      0.080940000000     0.460680000000     0.428670000000     0.0465641  
H90      H      0.072490000000     0.549340000000     0.508000000000     0.0581434  
H91      H      0.011230000000     0.430840000000     0.409590000000     0.0348628  
H92      H      0.073450000000     0.473210000000     0.539000000000     0.0309157  
H93      H      0.989430000000     0.459950000000     0.456840000000     0.0522373  
H94      H      0.145030000000     0.554210000000     0.470950000000     0.0596774  
H95      H      0.079000000000     0.521470000000     0.555840000000     0.0428251  
H96      H      0.028950000000     0.545980000000     0.421850000000     0.0400904  
H97      H      0.201450000000     0.660450000000     0.233620000000     0.0457785  
H98      H      0.087770000000     0.698320000000     0.285660000000     0.0306644  
H99      H      0.103600000000     0.625720000000     0.170320000000     0.0357474  
H100     H      0.115490000000     0.695330000000     0.189290000000     0.0464552  
H101     H      0.098420000000     0.703570000000     0.234590000000     0.046007   
H102     H      0.178470000000     0.672950000000     0.275110000000     0.0455964  
H103     H      0.208320000000     0.630670000000     0.186230000000     0.0435433  
H104     H      0.038790000000     0.656530000000     0.271410000000     0.0438638  
H105     H      0.169180000000     0.721360000000     0.179860000000     0.0559988  
H106     H      0.138840000000     0.619030000000     0.264420000000     0.0578282  
H107     H      0.126750000000     0.666880000000     0.142200000000     0.0449781  
H108     H      0.136370000000     0.681540000000     0.309440000000     0.0299377  
H109     H      0.218920000000     0.700450000000     0.205220000000     0.0556024  
H110     H      0.069440000000     0.645870000000     0.228550000000     0.0577958  
H111     H      0.124250000000     0.626640000000     0.314790000000     0.041707   
H112     H      0.155040000000     0.603610000000     0.198400000000     0.0357914  
H113     H      0.396010000000     0.871720000000     0.526350000000     0.0462145  
H114     H      0.240710000000     0.767390000000     0.479770000000     0.0300676  
H115     H      0.429160000000     0.801400000000     0.474210000000     0.0335869  
H116     H      0.363660000000     0.781830000000     0.452030000000     0.0470173  
H117     H      0.298780000000     0.770790000000     0.456300000000     0.0462073  
H118     H      0.329050000000     0.852250000000     0.028740000000     0.0459456  
H119     H      0.468940000000     0.911320000000     0.508040000000     0.043027   
H120     H      0.232700000000     0.713490000000     0.481960000000     0.0414324  
H121     H      0.380030000000     0.835910000000     0.439790000000     0.0569151  
H122     H      0.333270000000     0.808560000000     0.045390000000     0.0579767  
H123     H      0.436930000000     0.820060000000     0.436220000000     0.0442978  
H124     H      0.257350000000     0.812120000000     0.523440000000     0.0302877  
H125     H      0.401190000000     0.897480000000     0.490940000000     0.0561908  
H126     H      0.305640000000     0.738890000000     0.484690000000     0.0594316  
H127     H      0.266160000000     0.794830000000     0.058990000000     0.042231   
H128     H      0.449150000000     0.855200000000     0.516370000000     0.0328025  
H129     H      0.582070000000     0.643800000000     0.035650000000     0.0462803  
H130     H      0.648890000000     0.628250000000     0.140660000000     0.0339484  
H131     H      0.697940000000     0.689090000000     0.006720000000     0.0309203  
H132     H      0.704880000000     0.694560000000     0.057980000000     0.0461808  
H133     H      0.692020000000     0.683380000000     0.105900000000     0.0465637  
H134     H      0.559530000000     0.624120000000     0.081750000000     0.0461502  
H135     H      0.590070000000     0.605500000000     0.990160000000     0.0420372  
H136     H      0.672240000000     0.680030000000     0.158700000000     0.0441392  
H137     H      0.687540000000     0.637970000000     0.063450000000     0.0574036  
H138     H      0.582880000000     0.676760000000     0.098270000000     0.0559712  
H139     H      0.717020000000     0.652990000000     0.015290000000     0.043494   
H140     H      0.570540000000     0.592000000000     0.125480000000     0.0335778  
H141     H      0.582860000000     0.594360000000     0.042740000000     0.0580087  
H142     H      0.667800000000     0.715000000000     0.113110000000     0.056319   
H143     H      0.542520000000     0.619440000000     0.134730000000     0.0426015  
H144     H      0.625850000000     0.662400000000     0.994170000000     0.0302958  
H145     H      0.486450000000     0.479270000000     0.379540000000     0.0459527  
H146     H      0.619480000000     0.588680000000     0.314560000000     0.0354116  
H147     H      0.539960000000     0.408180000000     0.371070000000     0.0302231  
H148     H      0.567090000000     0.456030000000     0.331780000000     0.0452751  
H149     H      0.587760000000     0.512300000000     0.303280000000     0.0457583  
H150     H      0.502970000000     0.539710000000     0.356330000000     0.0464592  
H151     H      0.507390000000     0.458700000000     0.428760000000     0.0432653  
H152     H      0.608910000000     0.578850000000     0.275350000000     0.0441428  
H153     H      0.604470000000     0.500310000000     0.354470000000     0.0565192  
H154     H      0.492570000000     0.527350000000     0.317610000000     0.0559277  
H155     H      0.594610000000     0.437690000000     0.379350000000     0.0416816  
H156     H      0.568010000000     0.605410000000     0.346450000000     0.0356255  
H157     H      0.534870000000     0.519330000000     0.396330000000     0.0579313  
H158     H      0.544140000000     0.510930000000     0.285450000000     0.0555438  
H159     H      0.525870000000     0.605410000000     0.326660000000     0.0446578  
H160     H      0.490800000000     0.420940000000     0.398320000000     0.0305577  
H161     H      0.652670000000     0.937160000000     0.287600000000     0.0463304  
H162     H      0.727070000000     0.838370000000     0.286940000000     0.0308034  
H163     H      0.599150000000     0.851250000000     0.360420000000     0.0368889  
H164     H      0.672450000000     0.870610000000     0.363820000000     0.0464305  
H165     H      0.704480000000     0.852050000000     0.331790000000     0.046083   
H166     H      0.683500000000     0.910750000000     0.260880000000     0.0458586  
H167     H      0.606430000000     0.950680000000     0.319750000000     0.0440937  
H168     H      0.689020000000     0.786000000000     0.300540000000     0.0428537  
H169     H      0.689310000000     0.926720000000     0.365260000000     0.0554295  
H170     H      0.631750000000     0.864830000000     0.264990000000     0.0568734  
H171     H      0.623930000000     0.883210000000     0.392980000000     0.0448712  
H172     H      0.712410000000     0.870520000000     0.244160000000     0.0309006  
H173     H      0.678560000000     0.965800000000     0.320490000000     0.0553599  
H174     H      0.650160000000     0.813490000000     0.325030000000     0.0581979  
H175     H      0.662100000000     0.844450000000     0.226720000000     0.0431704  
H176     H      0.587150000000     0.894090000000     0.313980000000     0.035956   
H177     H      0.435380000000     0.737230000000     0.176640000000     0.0462011  
H178     H      0.355960000000     0.600610000000     0.097370000000     0.0314508  
H179     H      0.400620000000     0.646520000000     0.239370000000     0.0311228  
H180     H      0.370690000000     0.604040000000     0.196940000000     0.0463274  
H181     H      0.355120000000     0.588010000000     0.148760000000     0.0464743  
H182     H      0.421730000000     0.722290000000     0.127960000000     0.0461762  
H183     H      0.490350000000     0.750190000000     0.214970000000     0.0427954  
H184     H      0.302420000000     0.575480000000     0.108840000000     0.0434728  
H185     H      0.419720000000     0.613910000000     0.181690000000     0.0581832  
H186     H      0.371170000000     0.710470000000     0.141180000000     0.0574437  
H187     H      0.425560000000     0.614760000000     0.235030000000     0.0429267  
H188     H      0.395300000000     0.678070000000     0.085500000000     0.0310197  
H189     H      0.470650000000     0.718460000000     0.166120000000     0.0579647  
H190     H      0.320820000000     0.608680000000     0.157380000000     0.0579294  
H191     H      0.370780000000     0.710520000000     0.087240000000     0.0415335  
H192     H      0.437240000000     0.723380000000     0.227620000000     0.0311954  
H193     H      0.599030000000     0.392460000000     0.668520000000     0.0457121  
H194     H      0.591770000000     0.356890000000     0.054260000000     0.0363759  
H195     H      0.514510000000     0.270730000000     0.669000000000     0.0301192  
H196     H      0.510100000000     0.290330000000     0.620380000000     0.0457336  
H197     H      0.523980000000     0.326070000000     0.578970000000     0.0461539  
H198     H      0.618340000000     0.436770000000     0.631500000000     0.0461946  
H199     H      0.621760000000     0.344210000000     0.695600000000     0.0429968  
H200     H      0.556450000000     0.367350000000     0.033290000000     0.0443265  
H201     H      0.556200000000     0.289770000000     0.607870000000     0.0575865  
H202     H      0.580560000000     0.440790000000     0.609530000000     0.0550297  
H203     H      0.526980000000     0.237250000000     0.646370000000     0.0425177  
H204     H      0.650650000000     0.425460000000     0.587200000000     0.0364045  
H205     H      0.631930000000     0.377270000000     0.648280000000     0.0575156  
H206     H      0.525770000000     0.376700000000     0.579320000000     0.0551352  
H207     H      0.648730000000     0.474570000000     0.584530000000     0.0440532  
H208     H      0.568330000000     0.330970000000     0.697510000000     0.0300411  
H209     H      0.782470000000     0.426870000000     0.873340000000     0.0466097  
H210     H      0.815230000000     0.571550000000     0.939470000000     0.0326344  
H211     H      0.816190000000     0.506070000000     0.803240000000     0.0316109  
H212     H      0.818360000000     0.551250000000     0.841490000000     0.0464957  
H213     H      0.816790000000     0.574020000000     0.887190000000     0.0467394  
H214     H      0.783010000000     0.448030000000     0.920390000000     0.0464668  
H215     H      0.831020000000     0.420230000000     0.836860000000     0.0429742  
H216     H      0.775120000000     0.582610000000     0.927800000000     0.0438508  
H217     H      0.865480000000     0.557280000000     0.857850000000     0.0582532  
H218     H      0.736310000000     0.447200000000     0.908150000000     0.0579436  
H219     H      0.869700000000     0.548130000000     0.805390000000     0.0439018  
H220     H      0.796960000000     0.498970000000     0.958530000000     0.0322401  
H221     H      0.837110000000     0.457970000000     0.882580000000     0.0575083  
H222     H      0.761320000000     0.539890000000     0.883110000000     0.0571546  
H223     H      0.743360000000     0.457340000000     0.961770000000     0.043524   
H224     H      0.794000000000     0.433650000000     0.821680000000     0.03219    
H225     H      0.920870000000     0.322720000000     0.725390000000     0.0458756  
H226     H      0.809640000000     0.366960000000     0.696390000000     0.0368486  
H227     H      0.992390000000     0.436730000000     0.692710000000     0.0311923  
H228     H      0.929590000000     0.416600000000     0.669020000000     0.0460701  
H229     H      0.863300000000     0.383480000000     0.658620000000     0.0462338  
H230     H      0.854520000000     0.280800000000     0.718540000000     0.0461388  
H231     H      0.968750000000     0.378710000000     0.764520000000     0.0435459  
H232     H      0.786870000000     0.348670000000     0.660150000000     0.044719   
H233     H      0.907030000000     0.428300000000     0.700940000000     0.057704   
H234     H      0.833930000000     0.269340000000     0.681770000000     0.0548352  
H235     H      0.979730000000     0.476960000000     0.704240000000     0.0425618  
H236     H      0.804740000000     0.303380000000     0.734180000000     0.0366161  
H237     H      0.898520000000     0.346470000000     0.749390000000     0.0575944  
H238     H      0.839340000000     0.328670000000     0.647030000000     0.0544939  
H239     H      0.778730000000     0.249590000000     0.719190000000     0.0446949  
H240     H      0.987170000000     0.381910000000     0.727030000000     0.0309571  
H241     H      0.565820000000     0.163380000000     0.822850000000     0.0462941  
H242     H      0.435180000000     0.001700000000     0.850980000000     0.0295412  
H243     H      0.576170000000     0.081980000000     0.759560000000     0.0357688  
H244     H      0.501030000000     0.048560000000     0.764450000000     0.0462133  
H245     H      0.460440000000     0.017830000000     0.802670000000     0.0456083  
H246     H      0.519770000000     0.123750000000     0.856430000000     0.0458265  
H247     H      0.616390000000     0.199800000000     0.782810000000     0.0444707  
H248     H      0.456160000000     0.966640000000     0.844780000000     0.0422252  
H249     H      0.501680000000     0.097220000000     0.754650000000     0.0556689  
H250     H      0.557980000000     0.106420000000     0.857320000000     0.0580948  
H251     H      0.553240000000     0.087990000000     0.725890000000     0.0449307  
H252     H      0.470180000000     0.064500000000     0.882780000000     0.0298751  
H253     H      0.540670000000     0.166280000000     0.789750000000     0.0554717  
H254     H      0.506770000000     0.014930000000     0.810740000000     0.0581523  
H255     H      0.518120000000     0.077820000000     0.901270000000     0.0425099  
H256     H      0.615290000000     0.151280000000     0.794860000000     0.0360017  
H257     H      0.662640000000     0.178100000000     0.523330000000     0.0463786  
H258     H      0.706970000000     0.057150000000     0.994070000000     0.0300777  
H259     H      0.597840000000     0.088730000000     0.589160000000     0.0349613  
H260     H      0.649870000000     0.069990000000     0.577870000000     0.0464265  
H261     H      0.681220000000     0.056920000000     0.041390000000     0.045931   
H262     H      0.692100000000     0.157470000000     0.989740000000     0.0457225  
H263     H      0.646210000000     0.207270000000     0.567800000000     0.0440397  
H264     H      0.659260000000     0.006370000000     0.996420000000     0.0427247  
H265     H      0.692070000000     0.122190000000     0.587890000000     0.0554759  
H266     H      0.637050000000     0.119740000000     0.985870000000     0.0576514  
H267     H      0.631800000000     0.099860000000     0.620590000000     0.0447489  
H268     H      0.712310000000     0.115360000000     0.963130000000     0.0303363  
H269     H      0.700760000000     0.192330000000     0.552190000000     0.0551404  
H270     H      0.628020000000     0.034780000000     0.028900000000     0.0586429  
H271     H      0.668270000000     0.109910000000     0.942680000000     0.0428553  
H272     H      0.606070000000     0.153960000000     0.557450000000     0.0348261  
H273     H      0.012230000000     0.514430000000     0.970670000000     0.0466679  
H274     H      0.130570000000     0.476000000000     0.008470000000     0.031336   
H275     H      0.047800000000     0.458840000000     0.880220000000     0.0444961  
H276     H      0.096430000000     0.514220000000     0.914670000000     0.0556742  
H277     H      0.133250000000     0.501640000000     0.958690000000     0.0462315  
H278     H      0.031850000000     0.493520000000     0.011220000000     0.0458516  
H279     H      0.975290000000     0.504950000000     0.922810000000     0.0396919  
H280     H      0.178480000000     0.526190000000     0.003690000000     0.0435324  
H281     H      0.080940000000     0.460680000000     0.928680000000     0.0465393  
H282     H      0.072490000000     0.549340000000     0.008000000000     0.0581747  
H283     H      0.011230000000     0.430840000000     0.909590000000     0.0348296  
H284     H      0.073450000000     0.473210000000     0.039000000000     0.0309621  
H285     H      0.989430000000     0.459950000000     0.956840000000     0.0521967  
H286     H      0.145030000000     0.554210000000     0.970950000000     0.0596404  
H287     H      0.079000000000     0.521470000000     0.055840000000     0.0428503  
H288     H      0.028950000000     0.545980000000     0.921850000000     0.0400668  
H289     H      0.201450000000     0.660450000000     0.733610000000     0.0458198  
H290     H      0.087770000000     0.698320000000     0.785660000000     0.0306604  
H291     H      0.103600000000     0.625720000000     0.670320000000     0.0357401  
H292     H      0.115490000000     0.695330000000     0.689290000000     0.0464496  
H293     H      0.098420000000     0.703570000000     0.734590000000     0.0459953  
H294     H      0.178470000000     0.672950000000     0.775110000000     0.0455895  
H295     H      0.208320000000     0.630670000000     0.686230000000     0.0435261  
H296     H      0.038800000000     0.656530000000     0.771410000000     0.0438681  
H297     H      0.169180000000     0.721360000000     0.679860000000     0.0559935  
H298     H      0.138840000000     0.619030000000     0.764420000000     0.057827   
H299     H      0.126750000000     0.666880000000     0.642200000000     0.0449646  
H300     H      0.136370000000     0.681540000000     0.809440000000     0.0299278  
H301     H      0.218920000000     0.700450000000     0.705220000000     0.0556179  
H302     H      0.069440000000     0.645870000000     0.728550000000     0.0577913  
H303     H      0.124250000000     0.626640000000     0.814790000000     0.0416998  
H304     H      0.155040000000     0.603610000000     0.698400000000     0.0357682  
H305     H      0.396010000000     0.871720000000     0.026350000000     0.0461427  
H306     H      0.240710000000     0.767390000000     0.979770000000     0.0300449  
H307     H      0.429160000000     0.801400000000     0.974210000000     0.0335485  
H308     H      0.363660000000     0.781830000000     0.952030000000     0.0469814  
H309     H      0.298780000000     0.770790000000     0.956300000000     0.0461811  
H310     H      0.329050000000     0.852250000000     0.528740000000     0.0459348  
H311     H      0.468940000000     0.911320000000     0.008040000000     0.0430901  
H312     H      0.232700000000     0.713490000000     0.981960000000     0.0414084  
H313     H      0.380030000000     0.835910000000     0.939790000000     0.0568811  
H314     H      0.333270000000     0.808560000000     0.545390000000     0.0579868  
H315     H      0.436930000000     0.820060000000     0.936220000000     0.0443068  
H316     H      0.257350000000     0.812120000000     0.023430000000     0.0303703  
H317     H      0.401180000000     0.897480000000     0.990940000000     0.0559048  
H318     H      0.305640000000     0.738890000000     0.984690000000     0.0593569  
H319     H      0.266160000000     0.794830000000     0.558990000000     0.0422058  
H320     H      0.449150000000     0.855200000000     0.016370000000     0.0328438  
H321     H      0.582070000000     0.643800000000     0.535650000000     0.0461839  
H322     H      0.648900000000     0.628250000000     0.640660000000     0.0339297  
H323     H      0.697940000000     0.689090000000     0.506720000000     0.030869   
H324     H      0.704880000000     0.694560000000     0.557980000000     0.0461654  
H325     H      0.692020000000     0.683380000000     0.605900000000     0.0465554  
H326     H      0.559530000000     0.624120000000     0.581750000000     0.0461385  
H327     H      0.590070000000     0.605500000000     0.490150000000     0.0423156  
H328     H      0.672240000000     0.680030000000     0.658700000000     0.0441244  
H329     H      0.687540000000     0.637970000000     0.563450000000     0.0573959  
H330     H      0.582880000000     0.676760000000     0.598280000000     0.0559621  
H331     H      0.717020000000     0.652990000000     0.515290000000     0.0434357  
H332     H      0.570540000000     0.592000000000     0.625480000000     0.0335667  
H333     H      0.582870000000     0.594360000000     0.542740000000     0.0579291  
H334     H      0.667800000000     0.715000000000     0.613110000000     0.0563069  
H335     H      0.542520000000     0.619440000000     0.634730000000     0.0425894  
H336     H      0.625850000000     0.662400000000     0.494180000000     0.0306168  
H337     H      0.486450000000     0.479270000000     0.879540000000     0.0458977  
H338     H      0.619480000000     0.588680000000     0.814560000000     0.0354083  
H339     H      0.539960000000     0.408180000000     0.871070000000     0.030209   
H340     H      0.567090000000     0.456030000000     0.831780000000     0.0452706  
H341     H      0.587760000000     0.512300000000     0.803280000000     0.0457543  
H342     H      0.502970000000     0.539710000000     0.856330000000     0.0464362  
H343     H      0.507390000000     0.458700000000     0.928760000000     0.043235   
H344     H      0.608910000000     0.578850000000     0.775350000000     0.044141   
H345     H      0.604470000000     0.500310000000     0.854470000000     0.0565158  
H346     H      0.492570000000     0.527350000000     0.817610000000     0.0559102  
H347     H      0.594610000000     0.437690000000     0.879350000000     0.0416719  
H348     H      0.568010000000     0.605410000000     0.846440000000     0.0356575  
H349     H      0.534870000000     0.519330000000     0.896330000000     0.0579014  
H350     H      0.544140000000     0.510930000000     0.785450000000     0.0555388  
H351     H      0.525870000000     0.605410000000     0.826660000000     0.0446858  
H352     H      0.490800000000     0.420940000000     0.898320000000     0.0305369  
H353     H      0.652670000000     0.937160000000     0.787600000000     0.0463206  
H354     H      0.727070000000     0.838370000000     0.786940000000     0.0308134  
H355     H      0.599150000000     0.851250000000     0.860420000000     0.0368739  
H356     H      0.672450000000     0.870610000000     0.863820000000     0.0464093  
H357     H      0.704480000000     0.852050000000     0.831790000000     0.046066   
H358     H      0.683500000000     0.910750000000     0.760880000000     0.0458526  
H359     H      0.606430000000     0.950680000000     0.819760000000     0.0441211  
H360     H      0.689020000000     0.786000000000     0.800540000000     0.0428635  
H361     H      0.689310000000     0.926720000000     0.865270000000     0.0553994  
H362     H      0.631750000000     0.864830000000     0.764990000000     0.0568709  
H363     H      0.623920000000     0.883210000000     0.892980000000     0.044857   
H364     H      0.712410000000     0.870520000000     0.744160000000     0.0308927  
H365     H      0.678560000000     0.965800000000     0.820490000000     0.0553476  
H366     H      0.650160000000     0.813490000000     0.825030000000     0.0581862  
H367     H      0.662100000000     0.844450000000     0.726720000000     0.0431639  
H368     H      0.587150000000     0.894090000000     0.813980000000     0.0359723  
H369     H      0.435380000000     0.737230000000     0.676640000000     0.0461944  
H370     H      0.355960000000     0.600610000000     0.597370000000     0.031432   
H371     H      0.400620000000     0.646520000000     0.739370000000     0.0311183  
H372     H      0.370690000000     0.604040000000     0.696940000000     0.0463227  
H373     H      0.355120000000     0.588010000000     0.648770000000     0.0464522  
H374     H      0.421730000000     0.722290000000     0.627970000000     0.0461861  
H375     H      0.490350000000     0.750190000000     0.714970000000     0.0427916  
H376     H      0.302420000000     0.575480000000     0.608840000000     0.0434604  
H377     H      0.419720000000     0.613910000000     0.681690000000     0.0581776  
H378     H      0.371170000000     0.710470000000     0.641180000000     0.0574538  
H379     H      0.425560000000     0.614760000000     0.735030000000     0.0429216  
H380     H      0.395300000000     0.678070000000     0.585500000000     0.0309833  
H381     H      0.470650000000     0.718460000000     0.666120000000     0.0579567  
H382     H      0.320820000000     0.608680000000     0.657380000000     0.0579192  
H383     H      0.370780000000     0.710520000000     0.587240000000     0.0415023  
H384     H      0.437240000000     0.723380000000     0.727620000000     0.0311923  
N1       N      0.606230000000     0.422160000000     0.056010000000    -0.161055   
N2       N      0.578300000000     0.289710000000     0.169380000000    -0.161668   
N3       N      0.754460000000     0.518620000000     0.444750000000    -0.161234   
N4       N      0.855720000000     0.486060000000     0.322540000000    -0.161517   
N5       N      0.778350000000     0.298940000000     0.191480000000    -0.160403   
N6       N      0.971470000000     0.429630000000     0.237290000000    -0.161544   
N7       N      0.492040000000     0.021400000000     0.373260000000    -0.161468   
N8       N      0.588180000000     0.145720000000     0.252350000000    -0.160326   
N9       N      0.657830000000     0.054910000000     0.468850000000    -0.16118    
N10      N      0.638520000000     0.155350000000     0.096550000000    -0.160484   
N11      N      0.131690000000     0.528810000000     0.530680000000    -0.161472   
N12      N      0.014790000000     0.489700000000     0.397270000000    -0.160879   
N13      N      0.078060000000     0.635370000000     0.291810000000    -0.161451   
N14      N      0.166790000000     0.645570000000     0.161690000000    -0.160575   
N15      N      0.250850000000     0.749960000000     0.522770000000    -0.162139   
N16      N      0.455550000000     0.869030000000     0.470230000000    -0.161635   
N17      N      0.606480000000     0.650080000000     0.149420000000    -0.161724   
N18      N      0.652190000000     0.623190000000     0.003780000000    -0.161201   
N19      N      0.569390000000     0.596450000000     0.299880000000    -0.160453   
N20      N      0.555620000000     0.453120000000     0.406090000000    -0.161381   
N21      N      0.669990000000     0.810710000000     0.263650000000    -0.161465   
N22      N      0.610220000000     0.915320000000     0.357590000000    -0.160494   
N23      N      0.332230000000     0.643400000000     0.098770000000    -0.161766   
N24      N      0.462470000000     0.682070000000     0.223650000000    -0.161263   
N25      N      0.606230000000     0.422160000000     0.556010000000    -0.161064   
N26      N      0.578300000000     0.289710000000     0.669380000000    -0.161656   
N27      N      0.754460000000     0.518620000000     0.944750000000    -0.161268   
N28      N      0.855720000000     0.486060000000     0.822540000000    -0.16152    
N29      N      0.778350000000     0.298940000000     0.691480000000    -0.16041    
N30      N      0.971470000000     0.429630000000     0.737290000000    -0.16156    
N31      N      0.492040000000     0.021400000000     0.873260000000    -0.161473   
N32      N      0.588180000000     0.145720000000     0.752350000000    -0.160331   
N33      N      0.657830000000     0.054910000000     0.968850000000    -0.161187   
N34      N      0.638510000000     0.155350000000     0.596550000000    -0.160498   
N35      N      0.131690000000     0.528810000000     0.030680000000    -0.161464   
N36      N      0.014790000000     0.489700000000     0.897270000000    -0.160891   
N37      N      0.078060000000     0.635370000000     0.791810000000    -0.161438   
N38      N      0.166790000000     0.645570000000     0.661690000000    -0.160589   
N39      N      0.250850000000     0.749960000000     0.022770000000    -0.162005   
N40      N      0.455550000000     0.869040000000     0.970240000000    -0.161707   
N41      N      0.606480000000     0.650080000000     0.649420000000    -0.161746   
N42      N      0.652190000000     0.623190000000     0.503780000000    -0.161292   
N43      N      0.569390000000     0.596450000000     0.799880000000    -0.160432   
N44      N      0.555620000000     0.453120000000     0.906090000000    -0.161389   
N45      N      0.669990000000     0.810710000000     0.763650000000    -0.161454   
N46      N      0.610220000000     0.915320000000     0.857600000000    -0.160534   
N47      N      0.332230000000     0.643400000000     0.598770000000    -0.161781   
N48      N      0.462470000000     0.682070000000     0.723650000000    -0.161265   
O1       O      0.621040000000     0.765470000000     0.229560000000    -0.250409   
O2       O      0.553300000000     0.646420000000     0.281050000000    -0.249899   
O3       O      0.625840000000     0.683870000000     0.195220000000    -0.254278   
O4       O      0.534130000000     0.718120000000     0.224360000000    -0.251933   
O5       O      0.501650000000     0.650010000000     0.234080000000    -0.250128   
O6       O      0.561020000000     0.651660000000     0.183680000000    -0.258574   
O7       O      0.631490000000     0.736790000000     0.268370000000    -0.255736   
O8       O      0.592720000000     0.631080000000     0.254680000000    -0.253906   
O9       O      0.198550000000     0.582710000000     0.041120000000    -0.251374   
O10      O      0.242010000000     0.718030000000     0.068880000000    -0.252779   
O11      O      0.260920000000     0.607920000000     0.093340000000    -0.250671   
O12      O      0.211170000000     0.633530000000     0.132580000000    -0.256076   
O13      O      0.171930000000     0.653330000000     0.110490000000    -0.250114   
O14      O      0.295270000000     0.675830000000     0.083180000000    -0.257012   
O15      O      0.148660000000     0.581060000000     0.066650000000    -0.254834   
O16      O      0.226800000000     0.677560000000     0.030010000000    -0.256792   
O17      O      0.605310000000     0.985930000000     0.458270000000    -0.251466   
O18      O      0.495270000000     0.891700000000     0.427520000000    -0.254471   
O19      O      0.581240000000     0.957860000000     0.368220000000    -0.253743   
O20      O      0.506580000000     0.966440000000     0.380020000000    -0.25195    
O21      O      0.536850000000     0.021770000000     0.408980000000    -0.249848   
O22      O      0.587200000000     0.921470000000     0.404100000000    -0.253563   
O23      O      0.612060000000     0.037390000000     0.429570000000    -0.249899   
O24      O      0.510530000000     0.937900000000     0.462830000000    -0.255504   
O25      O      0.904580000000     0.464290000000     0.323720000000    -0.257131   
O26      O      0.008000000000     0.477990000000     0.346450000000    -0.2476     
O27      O      0.008750000000     0.583040000000     0.291470000000    -0.247242   
O28      O      0.978450000000     0.492150000000     0.257410000000    -0.258172   
O29      O      0.972990000000     0.442990000000     0.287700000000    -0.250568   
O30      O      0.052400000000     0.566740000000     0.310540000000    -0.256582   
O31      O      0.924650000000     0.529430000000     0.309910000000    -0.249696   
O32      O      0.986550000000     0.518850000000     0.365450000000    -0.255544   
O33      O      0.599420000000     0.433960000000     0.506250000000    -0.25569    
O34      O      0.679180000000     0.578020000000     0.497320000000    -0.249397   
O35      O      0.573720000000     0.480320000000     0.453730000000    -0.248197   
O36      O      0.692350000000     0.480030000000     0.469870000000    -0.254073   
O37      O      0.707520000000     0.542190000000     0.452000000000    -0.250442   
O38      O      0.618510000000     0.472210000000     0.428250000000    -0.255557   
O39      O      0.644650000000     0.487470000000     0.532070000000    -0.257465   
O40      O      0.615060000000     0.553860000000     0.485560000000    -0.251963   
O41      O      0.632150000000     0.211200000000     0.230150000000    -0.252934   
O42      O      0.717660000000     0.288000000000     0.169320000000    -0.252338   
O43      O      0.587650000000     0.231670000000     0.160440000000    -0.255473   
O44      O      0.647190000000     0.215710000000     0.121580000000    -0.253176   
O45      O      0.640400000000     0.162110000000     0.147750000000    -0.2498     
O46      O      0.635700000000     0.285750000000     0.184420000000    -0.252172   
O47      O      0.600410000000     0.155530000000     0.201730000000    -0.248814   
O48      O      0.714120000000     0.238210000000     0.198110000000    -0.254839   
O49      O      0.621040000000     0.765470000000     0.729560000000    -0.250411   
O50      O      0.553300000000     0.646420000000     0.781050000000    -0.249901   
O51      O      0.625840000000     0.683870000000     0.695220000000    -0.254313   
O52      O      0.534130000000     0.718120000000     0.724360000000    -0.251936   
O53      O      0.501650000000     0.650010000000     0.734080000000    -0.250133   
O54      O      0.561020000000     0.651660000000     0.683680000000    -0.258491   
O55      O      0.631490000000     0.736790000000     0.768370000000    -0.255738   
O56      O      0.592720000000     0.631080000000     0.754680000000    -0.253908   
O57      O      0.198550000000     0.582710000000     0.541120000000    -0.251411   
O58      O      0.242010000000     0.718030000000     0.568880000000    -0.252793   
O59      O      0.260920000000     0.607920000000     0.593340000000    -0.250686   
O60      O      0.211170000000     0.633530000000     0.632590000000    -0.256082   
O61      O      0.171930000000     0.653330000000     0.610490000000    -0.250141   
O62      O      0.295270000000     0.675830000000     0.583180000000    -0.257033   
O63      O      0.148660000000     0.581060000000     0.566650000000    -0.25485    
O64      O      0.226800000000     0.677560000000     0.530010000000    -0.256876   
O65      O      0.605310000000     0.985930000000     0.958270000000    -0.251504   
O66      O      0.495270000000     0.891700000000     0.927520000000    -0.25448    
O67      O      0.581240000000     0.957860000000     0.868220000000    -0.253768   
O68      O      0.506580000000     0.966440000000     0.880020000000    -0.251954   
O69      O      0.536850000000     0.021770000000     0.908980000000    -0.249867   
O70      O      0.587200000000     0.921470000000     0.904100000000    -0.253597   
O71      O      0.612060000000     0.037390000000     0.929570000000    -0.24991    
O72      O      0.510530000000     0.937900000000     0.962830000000    -0.255565   
O73      O      0.904580000000     0.464290000000     0.823720000000    -0.257136   
O74      O      0.008000000000     0.477990000000     0.846450000000    -0.247605   
O75      O      0.008750000000     0.583040000000     0.791470000000    -0.247228   
O76      O      0.978450000000     0.492150000000     0.757410000000    -0.258171   
O77      O      0.972990000000     0.442990000000     0.787700000000    -0.250569   
O78      O      0.052400000000     0.566740000000     0.810540000000    -0.256635   
O79      O      0.924650000000     0.529430000000     0.809910000000    -0.249704   
O80      O      0.986550000000     0.518850000000     0.865450000000    -0.255557   
O81      O      0.599420000000     0.433960000000     0.006250000000    -0.255528   
O82      O      0.679190000000     0.578020000000     0.997320000000    -0.249352   
O83      O      0.573720000000     0.480320000000     0.953730000000    -0.248263   
O84      O      0.692350000000     0.480030000000     0.969870000000    -0.254139   
O85      O      0.707520000000     0.542190000000     0.952000000000    -0.250481   
O86      O      0.618510000000     0.472210000000     0.928250000000    -0.255598   
O87      O      0.644650000000     0.487470000000     0.032060000000    -0.257334   
O88      O      0.615060000000     0.553870000000     0.985560000000    -0.251978   
O89      O      0.632150000000     0.211200000000     0.730150000000    -0.252936   
O90      O      0.717660000000     0.288000000000     0.669320000000    -0.252357   
O91      O      0.587650000000     0.231670000000     0.660430000000    -0.255399   
O92      O      0.647190000000     0.215710000000     0.621580000000    -0.253189   
O93      O      0.640400000000     0.162110000000     0.647750000000    -0.249816   
O94      O      0.635700000000     0.285750000000     0.684420000000    -0.252145   
O95      O      0.600410000000     0.155530000000     0.701730000000    -0.248815   
O96      O      0.714120000000     0.238210000000     0.698110000000    -0.254864   


