data_structure

_audit_creation_method RASPA-1.0
_audit_creation_date 2023-5-22
_audit_author_name 'Poobodin Mano'

_cell_length_a    30.299
_cell_length_b    32.1629
_cell_length_c    57.6429
_cell_angle_alpha 90.0001
_cell_angle_beta  89.9132
_cell_angle_gamma 89.9627
_cell_volume      56173.1

_symmetry_cell_setting          triclinic
_symmetry_space_group_name_Hall 'P 1'
_symmetry_space_group_name_H-M  'P 1'
_symmetry_Int_Tables_number     1

_symmetry_equiv_pos_as_xyz 'x,y,z'

loop_
_atom_site_label
_atom_site_type_symbol
_atom_site_fract_x
_atom_site_fract_y
_atom_site_fract_z
_atom_site_charge
C1       C      0.055980000000     0.322870000000     0.389510000000     0.342967   
C2       C      0.152920000000     0.244130000000     0.927720000000     0.338668   
C3       C      0.179070000000     0.393960000000     0.912050000000     0.343565   
C4       C      0.087030000000     0.347640000000     0.972260000000     0.339636   
C5       C      0.079000000000     0.387070000000     0.122570000000     0.343071   
C6       C      0.162510000000     0.256930000000     0.125280000000     0.341794   
C7       C      0.208610000000     0.375680000000     0.165330000000     0.342176   
C8       C      0.068620000000     0.303830000000     0.184060000000     0.341719   
C9       C      0.912790000000     0.657960000000     0.990590000000     0.341123   
C10      C      0.037790000000     0.569890000000     0.001270000000     0.343775   
C11      C      0.922540000000     0.530380000000     0.951170000000     0.342988   
C12      C      0.018160000000     0.645410000000     0.933000000000     0.342391   
C13      C      0.928030000000     0.510650000000     0.292840000000     0.341367   
C14      C      0.798610000000     0.577600000000     0.256160000000     0.34174    
C15      C      0.936900000000     0.599150000000     0.227900000000     0.341335   
C16      C      0.865090000000     0.461610000000     0.226200000000     0.34011    
C17      C      0.920970000000     0.228220000000     0.088050000000     0.340968   
C18      C      0.791430000000     0.146830000000     0.102910000000     0.34502    
C19      C      0.919470000000     0.116100000000     0.139090000000     0.34081    
C20      C      0.840550000000     0.244330000000     0.157580000000     0.341193   
C21      C      0.808700000000     0.256940000000     0.868530000000     0.341182   
C22      C      0.845570000000     0.149130000000     0.311690000000     0.341819   
C23      C      0.721160000000     0.218900000000     0.302880000000     0.342286   
C24      C      0.864400000000     0.293390000000     0.301520000000     0.344674   
C25      C      0.703430000000     0.444600000000     0.006930000000     0.340306   
C26      C      0.827200000000     0.351860000000     0.008030000000     0.344422   
C27      C      0.771810000000     0.407800000000     0.075990000000     0.343306   
C28      C      0.686810000000     0.307000000000     0.034300000000     0.34039    
C29      C      0.598440000000     0.499770000000     0.296790000000     0.336237   
C30      C      0.667630000000     0.370970000000     0.278790000000     0.336564   
C31      C      0.706880000000     0.460880000000     0.342960000000     0.341409   
C32      C      0.577300000000     0.370480000000     0.339900000000     0.343538   
C33      C      0.437380000000     0.708850000000     0.992280000000     0.341456   
C34      C      0.539630000000     0.646440000000     0.942430000000     0.341404   
C35      C      0.382030000000     0.605730000000     0.950720000000     0.343864   
C36      C      0.427710000000     0.719770000000     0.906590000000     0.338324   
C37      C      0.289100000000     0.750070000000     0.264860000000     0.340388   
C38      C      0.438340000000     0.703700000000     0.240670000000     0.344189   
C39      C      0.308480000000     0.638820000000     0.214840000000     0.340959   
C40      C      0.353890000000     0.784620000000     0.197550000000     0.338725   
C41      C      0.541550000000     0.798980000000     0.078910000000     0.338051   
C42      C      0.648540000000     0.897960000000     0.066450000000     0.344899   
C43      C      0.638210000000     0.777020000000     0.018180000000     0.346838   
C44      C      0.531430000000     0.889910000000     0.014770000000     0.347456   
C45      C      0.624220000000     0.959160000000     0.284460000000     0.33979    
C46      C      0.489250000000     0.869950000000     0.284320000000     0.337825   
C47      C      0.549030000000     0.931600000000     0.219580000000     0.341532   
C48      C      0.622660000000     0.818110000000     0.263280000000     0.340622   
C49      C      0.391290000000     0.007820000000     0.007520000000     0.338069   
C50      C      0.534640000000     0.056920000000     0.037680000000     0.346393   
C51      C      0.401490000000     0.099890000000     0.071340000000     0.340427   
C52      C      0.448140000000     0.957860000000     0.073480000000     0.341494   
C53      C      0.332280000000     0.051800000000     0.371990000000     0.344184   
C54      C      0.448470000000     0.972370000000     0.866470000000     0.34221    
C55      C      0.382200000000     0.002260000000     0.293310000000     0.337212   
C56      C      0.449200000000     0.108480000000     0.328140000000     0.339222   
C57      C      0.069520000000     0.985440000000     0.859290000000     0.338336   
C58      C      0.224480000000     0.956970000000     0.351520000000     0.339374   
C59      C      0.147990000000     0.964230000000     0.923820000000     0.347005   
C60      C      0.134450000000     0.853090000000     0.862870000000     0.341448   
C61      C      0.093410000000     0.806940000000     0.141970000000     0.342158   
C62      C      0.209030000000     0.871030000000     0.178530000000     0.342526   
C63      C      0.237360000000     0.824350000000     0.101700000000     0.336313   
C64      C      0.137130000000     0.929160000000     0.109660000000     0.343355   
C65      C      0.260040000000     0.852000000000     0.210520000000     0.00702352 
C66      C      0.345540000000     0.013940000000     0.255610000000     0.00751585 
C67      C      0.393120000000     0.952160000000     0.260890000000     0.00641425 
C68      C      0.305270000000     0.988290000000     0.249080000000    -0.0961933  
C69      C      0.299120000000     0.879090000000     0.218350000000    -0.0988209  
C70      C      0.356620000000     0.922420000000     0.252690000000    -0.0976472  
C71      C      0.286360000000     0.921190000000     0.228930000000     0.016049   
C72      C      0.316370000000     0.943750000000     0.241700000000     0.014722   
C73      C      0.207410000000     0.910310000000     0.215380000000     0.0113113  
C74      C      0.243670000000     0.941640000000     0.220550000000    -0.100037   
C75      C      0.157900000000     0.946480000000     0.965210000000     0.0110329  
C76      C      0.347080000000     0.027110000000     0.973190000000     0.00875296 
C77      C      0.345300000000     0.954680000000     0.987980000000     0.0103404  
C78      C      0.297820000000     0.033280000000     0.977800000000    -0.0997408  
C79      C      0.206870000000     0.945890000000     0.971850000000    -0.098874   
C80      C      0.295420000000     0.956690000000     0.992260000000    -0.10008    
C81      C      0.230250000000     0.988290000000     0.970940000000     0.0204129  
C82      C      0.273040000000     0.991790000000     0.978670000000     0.0194514  
C83      C      0.159990000000     0.019510000000     0.952780000000     0.0121921  
C84      C      0.209200000000     0.024480000000     0.957610000000    -0.0999114  
C85      C      0.570260000000     0.950300000000     0.179410000000     0.0101865  
C86      C      0.418590000000     0.915530000000     0.105600000000     0.011671   
C87      C      0.492760000000     0.901420000000     0.090280000000     0.0111064  
C88      C      0.435800000000     0.933090000000     0.128530000000    -0.098556   
C89      C      0.551640000000     0.924930000000     0.159260000000    -0.0989843  
C90      C      0.516090000000     0.918070000000     0.111900000000    -0.0982794  
C91      C      0.502920000000     0.934030000000     0.154270000000     0.0173044  
C92      C      0.485330000000     0.926020000000     0.132730000000     0.0176392  
C93      C      0.495930000000     0.968530000000     0.194200000000     0.0109222  
C94      C      0.472850000000     0.944000000000     0.175020000000    -0.0990565  
C95      C      0.517350000000     0.953620000000     0.991830000000     0.00993634 
C96      C      0.448110000000     0.908200000000     0.890400000000     0.0111022  
C97      C      0.513850000000     0.953760000000     0.889990000000     0.0112097  
C98      C      0.443400000000     0.911580000000     0.916850000000    -0.0998747  
C99      C      0.524710000000     0.950260000000     0.965670000000    -0.0981019  
C100     C      0.510580000000     0.963250000000     0.915900000000    -0.0994423  
C101     C      0.487760000000     0.927060000000     0.952960000000     0.0213703  
C102     C      0.482810000000     0.931500000000     0.929310000000     0.0207108  
C103     C      0.461950000000     0.897290000000     0.992460000000     0.0104626  
C104     C      0.462830000000     0.892630000000     0.965970000000    -0.0997052  
C105     C      0.300880000000     0.934540000000     0.345190000000     0.00997739 
C106     C      0.228170000000     0.797290000000     0.275560000000     0.00977031 
C107     C      0.275260000000     0.767030000000     0.306060000000     0.0106339  
C108     C      0.245330000000     0.841360000000     0.279600000000    -0.0987031  
C109     C      0.295460000000     0.889710000000     0.336620000000    -0.0981257  
C110     C      0.294100000000     0.809460000000     0.312860000000    -0.100002   
C111     C      0.272320000000     0.885220000000     0.312990000000     0.0207107  
C112     C      0.267980000000     0.846500000000     0.303200000000     0.0180575  
C113     C      0.258730000000     0.964550000000     0.313260000000     0.0100633  
C114     C      0.248640000000     0.922580000000     0.301910000000    -0.0988037  
C115     C      0.398580000000     0.842930000000     0.183300000000     0.0113297  
C116     C      0.475430000000     0.759690000000     0.091410000000     0.00937482 
C117     C      0.533610000000     0.776990000000     0.119850000000     0.00979409 
C118     C      0.439780000000     0.782700000000     0.105110000000    -0.0987565  
C119     C      0.436100000000     0.823370000000     0.169420000000    -0.099772   
C120     C      0.502360000000     0.802560000000     0.134970000000    -0.0994944  
C121     C      0.421820000000     0.806870000000     0.145610000000     0.0188079  
C122     C      0.453380000000     0.795230000000     0.129750000000     0.0185411  
C123     C      0.339950000000     0.814360000000     0.158700000000     0.00686573 
C124     C      0.372950000000     0.796780000000     0.140980000000    -0.0962009  
C125     C      0.289520000000     0.836270000000     0.069290000000     0.00659632 
C126     C      0.425890000000     0.701350000000     0.034580000000     0.00984602 
C127     C      0.438990000000     0.771120000000     0.017680000000     0.00397512 
C128     C      0.383740000000     0.714910000000     0.047030000000    -0.0987965  
C129     C      0.338320000000     0.824590000000     0.066630000000    -0.0984741  
C130     C      0.399810000000     0.790170000000     0.030920000000    -0.0960203  
C131     C      0.345130000000     0.777890000000     0.063310000000     0.0157299  
C132     C      0.377130000000     0.761940000000     0.048730000000     0.0184794  
C133     C      0.270690000000     0.763830000000     0.081880000000     0.00686146 
C134     C      0.319030000000     0.750500000000     0.080080000000    -0.0984327  
C135     C      0.421840000000     0.723220000000     0.863930000000     0.00767449 
C136     C      0.429460000000     0.882390000000     0.312860000000     0.00698945 
C137     C      0.426090000000     0.821220000000     0.286820000000     0.0101076  
C138     C      0.425360000000     0.855690000000     0.834670000000    -0.0987244  
C139     C      0.387370000000     0.741290000000     0.347270000000    -0.102078   
C140     C      0.421650000000     0.790970000000     0.307210000000    -0.101269   
C141     C      0.390380000000     0.788360000000     0.847780000000     0.0179427  
C142     C      0.408300000000     0.811680000000     0.330080000000     0.0165572  
C143     C      0.415340000000     0.788620000000     0.888760000000     0.00823982 
C144     C      0.380490000000     0.804930000000     0.871870000000    -0.101974   
C145     C      0.501410000000     0.714040000000     0.267340000000     0.0100533  
C146     C      0.581050000000     0.543840000000     0.262810000000     0.00720431 
C147     C      0.560880000000     0.567250000000     0.303300000000     0.00634903 
C148     C      0.601080000000     0.586560000000     0.257890000000    -0.100382   
C149     C      0.523490000000     0.677210000000     0.279280000000    -0.0986301  
C150     C      0.580630000000     0.610230000000     0.298270000000    -0.09925    
C151     C      0.550380000000     0.649220000000     0.263130000000     0.018351   
C152     C      0.577360000000     0.619150000000     0.272390000000     0.0183517  
C153     C      0.514330000000     0.686350000000     0.227920000000     0.00940709 
C154     C      0.540440000000     0.648970000000     0.237050000000    -0.0983047  
C155     C      0.502150000000     0.342720000000     0.346980000000     0.0102809  
C156     C      0.518810000000     0.148700000000     0.326410000000     0.010267   
C157     C      0.449600000000     0.179160000000     0.311040000000     0.010125   
C158     C      0.526640000000     0.185500000000     0.342700000000    -0.0999517  
C159     C      0.489680000000     0.302340000000     0.334480000000    -0.0984478  
C160     C      0.454310000000     0.218280000000     0.325920000000    -0.0993195  
C161     C      0.514920000000     0.263450000000     0.342480000000     0.0188124  
C162     C      0.500750000000     0.224530000000     0.335830000000     0.0189349  
C163     C      0.566410000000     0.310440000000     0.366090000000     0.0107798  
C164     C      0.560360000000     0.268810000000     0.353750000000    -0.0984522  
C165     C      0.618070000000     0.653460000000     0.954000000000     0.0100246  
C166     C      0.661900000000     0.470290000000     0.972830000000     0.00695068 
C167     C      0.679510000000     0.518260000000     0.006100000000     0.00710362 
C168     C      0.676990000000     0.503430000000     0.955490000000    -0.0987393  
C169     C      0.640680000000     0.619280000000     0.968120000000    -0.0984564  
C170     C      0.694860000000     0.551850000000     0.989040000000    -0.0989844  
C171     C      0.646900000000     0.577730000000     0.955570000000     0.0202729  
C172     C      0.671360000000     0.546720000000     0.965850000000     0.0177161  
C173     C      0.597680000000     0.605650000000     0.922280000000     0.0107359  
C174     C      0.619550000000     0.568090000000     0.933890000000    -0.0985613  
C175     C      0.633050000000     0.259780000000     0.015500000000     0.00902934 
C176     C      0.608340000000     0.076090000000     0.052630000000     0.0132025  
C177     C      0.592710000000     0.082320000000     0.010840000000     0.0110413  
C178     C      0.615970000000     0.122670000000     0.055740000000    -0.100699   
C179     C      0.640900000000     0.213320000000     0.011430000000    -0.0991594  
C180     C      0.600540000000     0.129450000000     0.010750000000    -0.0991067  
C181     C      0.636020000000     0.187600000000     0.033610000000     0.0186482  
C182     C      0.620850000000     0.147170000000     0.033070000000     0.0191493  
C183     C      0.648900000000     0.253080000000     0.057730000000     0.009537   
C184     C      0.656860000000     0.206230000000     0.055460000000    -0.0995624  
C185     C      0.039470000000     0.039270000000     0.833020000000     0.00778555 
C186     C      0.843660000000     0.072700000000     0.317130000000     0.0107241  
C187     C      0.891880000000     0.103420000000     0.287110000000     0.0111118  
C188     C      0.881670000000     0.048350000000     0.828140000000    -0.09875    
C189     C      0.007350000000     0.030310000000     0.313160000000    -0.099379   
C190     C      0.933690000000     0.083640000000     0.296860000000    -0.0989196  
C191     C      0.960580000000     0.026030000000     0.322680000000     0.0180504  
C192     C      0.925820000000     0.050010000000     0.815150000000     0.0205383  
C193     C      0.989760000000     0.002190000000     0.861170000000     0.00666367 
C194     C      0.956530000000     0.993480000000     0.841800000000    -0.0982868  
C195     C      0.676670000000     0.190420000000     0.271020000000     0.0115251  
C196     C      0.637170000000     0.011980000000     0.315210000000     0.00833134 
C197     C      0.685020000000     0.009720000000     0.280330000000     0.00953321 
C198     C      0.625200000000     0.057820000000     0.310820000000    -0.0990199  
C199     C      0.682700000000     0.143300000000     0.272060000000    -0.099264   
C200     C      0.671560000000     0.053190000000     0.272520000000    -0.0990647  
C201     C      0.658100000000     0.122270000000     0.292200000000     0.0203215  
C202     C      0.654360000000     0.079600000000     0.292690000000     0.0194968  
C203     C      0.644890000000     0.195360000000     0.310080000000     0.0110697  
C204     C      0.645360000000     0.148010000000     0.313680000000    -0.0995613  
C205     C      0.879020000000     0.296770000000     0.995350000000     0.0106906  
C206     C      0.810910000000     0.314920000000     0.896770000000     0.00686858 
C207     C      0.818310000000     0.241100000000     0.910230000000     0.00877931 
C208     C      0.854790000000     0.326410000000     0.908350000000    -0.0982416  
C209     C      0.870820000000     0.279090000000     0.970970000000    -0.0984975  
C210     C      0.862200000000     0.251080000000     0.922030000000    -0.0999571  
C211     C      0.871010000000     0.310570000000     0.950890000000     0.0235019  
C212     C      0.863740000000     0.297000000000     0.928630000000     0.0196368  
C213     C      0.887090000000     0.368040000000     0.980450000000     0.0121319  
C214     C      0.872680000000     0.357280000000     0.955860000000    -0.0992377  
C215     C      0.078190000000     0.961570000000     0.086230000000     0.0109832  
C216     C      0.987780000000     0.088540000000     0.157020000000     0.010705   
C217     C      0.934460000000     0.040480000000     0.138880000000     0.0110398  
C218     C      0.024740000000     0.076420000000     0.140130000000    -0.0991202  
C219     C      0.039680000000     0.976190000000     0.101350000000    -0.0979116  
C220     C      0.967410000000     0.026210000000     0.120390000000    -0.100118   
C221     C      0.049590000000     0.015090000000     0.115880000000     0.0187541  
C222     C      0.015530000000     0.036520000000     0.126320000000     0.0199341  
C223     C      0.132430000000     0.005760000000     0.106230000000     0.0103722  
C224     C      0.097650000000     0.024910000000     0.122370000000    -0.0984943  
C225     C      0.753540000000     0.115990000000     0.069080000000     0.0120409  
C226     C      0.664250000000     0.945870000000     0.099140000000     0.0113342  
C227     C      0.718310000000     0.937830000000     0.067020000000     0.0104429  
C228     C      0.662050000000     0.993090000000     0.095770000000    -0.0984379  
C229     C      0.749710000000     0.068860000000     0.068060000000    -0.0996596  
C230     C      0.716810000000     0.984120000000     0.061140000000    -0.098565   
C231     C      0.714570000000     0.051020000000     0.084310000000     0.0179642  
C232     C      0.700650000000     0.010560000000     0.081550000000     0.0168712  
C233     C      0.714400000000     0.121680000000     0.106710000000     0.0107114  
C234     C      0.701150000000     0.075510000000     0.106050000000    -0.0994203  
C235     C      0.663290000000     0.346340000000     0.238080000000     0.00914824 
C236     C      0.842060000000     0.270200000000     0.198070000000     0.0118428  
C237     C      0.798150000000     0.307300000000     0.168260000000     0.00801135 
C238     C      0.802670000000     0.267520000000     0.214620000000    -0.102067   
C239     C      0.700780000000     0.343880000000     0.220190000000    -0.0989913  
C240     C      0.756320000000     0.305950000000     0.183140000000    -0.0987515  
C241     C      0.736980000000     0.312210000000     0.225870000000     0.0190524  
C242     C      0.765630000000     0.298350000000     0.208900000000     0.0169023  
C243     C      0.706510000000     0.306810000000     0.267200000000     0.0140345  
C244     C      0.746860000000     0.304140000000     0.251440000000    -0.103273   
C245     C      0.668350000000     0.765680000000     0.283720000000     0.00728098 
C246     C      0.727330000000     0.598090000000     0.238710000000     0.00916782 
C247     C      0.736680000000     0.599670000000     0.281400000000     0.00875126 
C248     C      0.706120000000     0.641340000000     0.238290000000    -0.0983554  
C249     C      0.660190000000     0.718730000000     0.285890000000    -0.0993335  
C250     C      0.718140000000     0.643720000000     0.283560000000    -0.0982073  
C251     C      0.670150000000     0.696140000000     0.263160000000     0.0188315  
C252     C      0.694710000000     0.660110000000     0.261950000000     0.0173005  
C253     C      0.657720000000     0.761850000000     0.240580000000     0.00841012 
C254     C      0.647610000000     0.715450000000     0.242120000000    -0.100801   
C255     C      0.045830000000     0.746050000000     0.133410000000     0.00983197 
C256     C      0.973670000000     0.667860000000     0.227580000000     0.00914637 
C257     C      0.992820000000     0.614530000000     0.197830000000     0.00893628 
C258     C      0.970440000000     0.702000000000     0.209140000000    -0.0992932  
C259     C      0.037680000000     0.710240000000     0.150470000000    -0.0986806  
C260     C      0.990440000000     0.646430000000     0.178210000000    -0.0991274  
C261     C      0.012110000000     0.721920000000     0.172530000000     0.0194093  
C262     C      0.994790000000     0.691300000000     0.186630000000     0.0190211  
C263     C      0.021460000000     0.798900000000     0.161890000000     0.0107612  
C264     C      0.014450000000     0.766890000000     0.181110000000    -0.0990687  
C265     C      0.810710000000     0.411720000000     0.210660000000     0.00865682 
C266     C      0.829940000000     0.435510000000     0.101770000000     0.0114129  
C267     C      0.751510000000     0.435790000000     0.114640000000     0.0100567  
C268     C      0.845340000000     0.414930000000     0.124210000000    -0.10114    
C269     C      0.793170000000     0.424750000000     0.186830000000    -0.097863   
C270     C      0.763490000000     0.416520000000     0.138110000000    -0.0993109  
C271     C      0.826550000000     0.419740000000     0.166920000000     0.0175119  
C272     C      0.812510000000     0.420160000000     0.144180000000     0.0200313  
C273     C      0.887780000000     0.409100000000     0.197230000000     0.0117361  
C274     C      0.876070000000     0.421840000000     0.172470000000    -0.0993861  
C275     C      0.871850000000     0.724640000000     0.989610000000     0.0100121  
C276     C      0.669020000000     0.705760000000     0.016770000000     0.0117087  
C277     C      0.680840000000     0.753620000000     0.983840000000     0.0118511  
C278     C      0.718470000000     0.700310000000     0.021130000000    -0.0995224  
C279     C      0.823200000000     0.723840000000     0.982550000000    -0.0988164  
C280     C      0.731100000000     0.752100000000     0.986140000000    -0.0996109  
C281     C      0.792610000000     0.706930000000     0.001550000000     0.0185502  
C282     C      0.748460000000     0.717260000000     0.001870000000     0.0183922  
C283     C      0.859870000000     0.675260000000     0.021970000000     0.0102707  
C284     C      0.810410000000     0.671820000000     0.016940000000    -0.0988914  
C285     C      0.087360000000     0.676630000000     0.918460000000     0.00734197 
C286     C      0.095320000000     0.797460000000     0.841330000000     0.0106027  
C287     C      0.167390000000     0.782880000000     0.859570000000     0.0120349  
C288     C      0.073070000000     0.760450000000     0.853350000000    -0.0987326  
C289     C      0.111290000000     0.670950000000     0.895260000000    -0.100244   
C290     C      0.149700000000     0.746960000000     0.874140000000    -0.0994185  
C291     C      0.087280000000     0.695840000000     0.876770000000     0.0198333  
C292     C      0.103750000000     0.731760000000     0.867160000000     0.0210425  
C293     C      0.015120000000     0.686410000000     0.896750000000     0.00769594 
C294     C      0.039950000000     0.681310000000     0.873770000000    -0.100545   
C295     C      0.856010000000     0.485800000000     0.952680000000     0.0104771  
C296     C      0.786090000000     0.475720000000     0.349780000000     0.0077552  
C297     C      0.729180000000     0.500630000000     0.377780000000     0.00980067 
C298     C      0.812340000000     0.454680000000     0.369190000000    -0.0983002  
C299     C      0.820690000000     0.492150000000     0.934230000000    -0.0983098  
C300     C      0.752910000000     0.480300000000     0.398240000000    -0.0994726  
C301     C      0.833430000000     0.475910000000     0.910180000000     0.0177861  
C302     C      0.801810000000     0.472790000000     0.393130000000     0.0185966  
C303     C      0.915050000000     0.470600000000     0.924270000000     0.00894614 
C304     C      0.882310000000     0.470250000000     0.903950000000    -0.0973127  
C305     C      0.282040000000     0.593680000000     0.182990000000     0.00913904 
C306     C      0.256740000000     0.399780000000     0.197370000000     0.0103985  
C307     C      0.274750000000     0.418480000000     0.156890000000     0.0104291  
C308     C      0.255140000000     0.445200000000     0.205260000000    -0.0985717  
C309     C      0.298110000000     0.549750000000     0.177280000000    -0.0995546  
C310     C      0.273460000000     0.465190000000     0.161860000000    -0.0984912  
C311     C      0.281110000000     0.517180000000     0.194430000000     0.0191994  
C312     C      0.273170000000     0.476720000000     0.187680000000     0.0193348  
C313     C      0.267260000000     0.574520000000     0.224200000000     0.00900023 
C314     C      0.282140000000     0.529650000000     0.220040000000    -0.099495   
C315     C      0.369180000000     0.170670000000     0.071360000000     0.00980768 
C316     C      0.185980000000     0.183020000000     0.125490000000     0.0105031  
C317     C      0.186490000000     0.222840000000     0.088840000000     0.0111331  
C318     C      0.235350000000     0.173110000000     0.123920000000    -0.0989595  
C319     C      0.319030000000     0.175920000000     0.071360000000    -0.098735   
C320     C      0.235970000000     0.216420000000     0.085040000000    -0.0991916  
C321     C      0.297430000000     0.166380000000     0.094830000000     0.0186959  
C322     C      0.256490000000     0.182430000000     0.100270000000     0.0188408  
C323     C      0.368230000000     0.128470000000     0.107310000000     0.0100648  
C324     C      0.318000000000     0.131860000000     0.109660000000    -0.0990974  
C325     C      0.051760000000     0.277260000000     0.223490000000     0.00953012 
C326     C      0.879020000000     0.347980000000     0.272190000000     0.010914   
C327     C      0.936960000000     0.328630000000     0.299990000000     0.0112817  
C328     C      0.905320000000     0.332600000000     0.251230000000    -0.0985927  
C329     C      0.031340000000     0.305220000000     0.242180000000    -0.0991092  
C330     C      0.968270000000     0.312620000000     0.281150000000    -0.0985345  
C331     C      0.982320000000     0.314290000000     0.238030000000     0.0196876  
C332     C      0.953850000000     0.322090000000     0.256180000000     0.0207837  
C333     C      0.990970000000     0.292480000000     0.195860000000     0.0085365  
C334     C      0.968640000000     0.322240000000     0.212880000000    -0.0984758  
C335     C      0.078100000000     0.574660000000     0.038690000000     0.00953431 
C336     C      0.036720000000     0.400820000000     0.086770000000     0.0121318  
C337     C      0.045490000000     0.456660000000     0.115930000000     0.00980989 
C338     C      0.060390000000     0.425200000000     0.067860000000    -0.0998676  
C339     C      0.063020000000     0.546620000000     0.058860000000    -0.0981746  
C340     C      0.065390000000     0.486540000000     0.097920000000    -0.0987889  
C341     C      0.067380000000     0.499610000000     0.054640000000     0.0189868  
C342     C      0.061490000000     0.472000000000     0.072630000000     0.0193134  
C343     C      0.089620000000     0.514500000000     0.012810000000     0.0111376  
C344     C      0.069300000000     0.483590000000     0.029670000000    -0.0985409  
C345     C      0.192370000000     0.467820000000     0.901890000000     0.0101926  
C346     C      0.363160000000     0.531280000000     0.955490000000     0.0103937  
C347     C      0.303700000000     0.584310000000     0.954120000000     0.0102833  
C348     C      0.342310000000     0.505680000000     0.936030000000    -0.0995796  
C349     C      0.216650000000     0.496570000000     0.918760000000    -0.0985799  
C350     C      0.278890000000     0.560920000000     0.935040000000    -0.0995067  
C351     C      0.265860000000     0.486820000000     0.921880000000     0.0191058  
C352     C      0.293440000000     0.515580000000     0.932070000000     0.0195701  
C353     C      0.253950000000     0.417380000000     0.900710000000     0.0105767  
C354     C      0.281570000000     0.442000000000     0.918110000000    -0.0989156  
C355     C      0.211830000000     0.195930000000     0.439510000000     0.00738248 
C356     C      0.254360000000     0.046020000000     0.884630000000     0.00932045 
C357     C      0.311860000000     0.071630000000     0.411900000000     0.0106876  
C358     C      0.222140000000     0.080240000000     0.892270000000    -0.102239   
C359     C      0.213890000000     0.150990000000     0.448080000000    -0.100482   
C360     C      0.283820000000     0.108720000000     0.419220000000    -0.101897   
C361     C      0.203270000000     0.122470000000     0.927930000000     0.0179404  
C362     C      0.234640000000     0.101900000000     0.414960000000     0.020484   
C363     C      0.150790000000     0.173540000000     0.911280000000     0.00695611 
C364     C      0.155990000000     0.128900000000     0.920160000000    -0.101263   
C365     C      0.030390000000     0.379310000000     0.997740000000     0.0110407  
C366     C      0.993630000000     0.240430000000     0.069550000000     0.010475   
C367     C      0.925210000000     0.273490000000     0.053410000000     0.00913773 
C368     C      0.018200000000     0.281930000000     0.068300000000    -0.103748   
C369     C      0.000270000000     0.353400000000     0.013360000000    -0.100772   
C370     C      0.948420000000     0.315630000000     0.051930000000    -0.101827   
C371     C      0.023220000000     0.329810000000     0.033000000000     0.0179002  
C372     C      0.998280000000     0.309970000000     0.049650000000     0.0194957  
C373     C      0.098280000000     0.349730000000     0.014850000000     0.0116001  
C374     C      0.072790000000     0.321100000000     0.031280000000    -0.101305   
C375     C      0.978880000000     0.327100000000     0.375320000000     0.00850513 
C376     C      0.997000000000     0.488050000000     0.311930000000     0.00999214 
C377     C      0.926620000000     0.487280000000     0.333850000000     0.00904927 
C378     C      0.003620000000     0.441230000000     0.314490000000    -0.0987487  
C379     C      0.964880000000     0.370270000000     0.366560000000    -0.097652   
C380     C      0.930850000000     0.440710000000     0.339110000000    -0.099172   
C381     C      0.990360000000     0.386740000000     0.345350000000     0.0184392  
C382     C      0.977020000000     0.422880000000     0.334660000000     0.0181789  
C383     C      0.040440000000     0.322700000000     0.347510000000     0.0114685  
C384     C      0.034610000000     0.366960000000     0.338610000000    -0.0990405  
C385     C      0.055970000000     0.322870000000     0.889500000000     0.34288    
C386     C      0.152940000000     0.244150000000     0.427720000000     0.338765   
C387     C      0.179070000000     0.393980000000     0.412050000000     0.343558   
C388     C      0.087040000000     0.347650000000     0.472270000000     0.339642   
C389     C      0.078990000000     0.387060000000     0.622580000000     0.343128   
C390     C      0.162490000000     0.256900000000     0.625300000000     0.341521   
C391     C      0.208620000000     0.375670000000     0.665330000000     0.342033   
C392     C      0.068610000000     0.303840000000     0.684080000000     0.341617   
C393     C      0.912790000000     0.657980000000     0.490600000000     0.341181   
C394     C      0.037780000000     0.569900000000     0.501290000000     0.343841   
C395     C      0.922540000000     0.530400000000     0.451190000000     0.343106   
C396     C      0.018180000000     0.645420000000     0.433020000000     0.342245   
C397     C      0.928040000000     0.510660000000     0.792840000000     0.341351   
C398     C      0.798610000000     0.577600000000     0.756160000000     0.341734   
C399     C      0.936900000000     0.599160000000     0.727900000000     0.341212   
C400     C      0.865090000000     0.461610000000     0.726210000000     0.340171   
C401     C      0.920970000000     0.228230000000     0.588050000000     0.340915   
C402     C      0.791430000000     0.146840000000     0.602910000000     0.345081   
C403     C      0.919470000000     0.116110000000     0.639090000000     0.340666   
C404     C      0.840550000000     0.244350000000     0.657570000000     0.341342   
C405     C      0.808720000000     0.256940000000     0.368530000000     0.341145   
C406     C      0.845560000000     0.149160000000     0.811670000000     0.342078   
C407     C      0.721140000000     0.218910000000     0.802880000000     0.342162   
C408     C      0.864360000000     0.293420000000     0.801520000000     0.344678   
C409     C      0.703420000000     0.444610000000     0.506940000000     0.340634   
C410     C      0.827200000000     0.351880000000     0.508030000000     0.344507   
C411     C      0.771800000000     0.407820000000     0.575990000000     0.343435   
C412     C      0.686800000000     0.307020000000     0.534300000000     0.340441   
C413     C      0.598440000000     0.499770000000     0.796790000000     0.336489   
C414     C      0.667600000000     0.370970000000     0.778780000000     0.33672    
C415     C      0.706870000000     0.460860000000     0.842950000000     0.341721   
C416     C      0.577280000000     0.370470000000     0.839890000000     0.343502   
C417     C      0.437380000000     0.708870000000     0.492280000000     0.341303   
C418     C      0.539630000000     0.646460000000     0.442430000000     0.341478   
C419     C      0.382030000000     0.605750000000     0.450720000000     0.343863   
C420     C      0.427710000000     0.719780000000     0.406590000000     0.338142   
C421     C      0.289100000000     0.750050000000     0.764860000000     0.340335   
C422     C      0.438340000000     0.703700000000     0.740670000000     0.344152   
C423     C      0.308480000000     0.638810000000     0.714840000000     0.340878   
C424     C      0.353880000000     0.784610000000     0.697550000000     0.338685   
C425     C      0.541540000000     0.799000000000     0.578910000000     0.338007   
C426     C      0.648530000000     0.897980000000     0.566450000000     0.3449     
C427     C      0.638200000000     0.777040000000     0.518180000000     0.346901   
C428     C      0.531420000000     0.889930000000     0.514770000000     0.347413   
C429     C      0.624210000000     0.959160000000     0.784470000000     0.339716   
C430     C      0.489230000000     0.869950000000     0.784320000000     0.337989   
C431     C      0.549010000000     0.931600000000     0.719580000000     0.341401   
C432     C      0.622660000000     0.818110000000     0.763290000000     0.340647   
C433     C      0.391280000000     0.007820000000     0.507520000000     0.337823   
C434     C      0.534630000000     0.056930000000     0.537690000000     0.34649    
C435     C      0.401480000000     0.099900000000     0.571340000000     0.340367   
C436     C      0.448130000000     0.957870000000     0.573480000000     0.341406   
C437     C      0.332260000000     0.051790000000     0.871990000000     0.344567   
C438     C      0.448480000000     0.972380000000     0.366470000000     0.341991   
C439     C      0.382190000000     0.002260000000     0.793310000000     0.337179   
C440     C      0.449180000000     0.108480000000     0.828150000000     0.339358   
C441     C      0.069520000000     0.985410000000     0.359280000000     0.338181   
C442     C      0.224470000000     0.956960000000     0.851530000000     0.33953    
C443     C      0.148000000000     0.964260000000     0.423820000000     0.346875   
C444     C      0.134500000000     0.853080000000     0.362880000000     0.341255   
C445     C      0.093400000000     0.806940000000     0.641970000000     0.34243    
C446     C      0.209020000000     0.871030000000     0.678540000000     0.342587   
C447     C      0.237360000000     0.824360000000     0.601700000000     0.336144   
C448     C      0.137130000000     0.929170000000     0.609670000000     0.343309   
C449     C      0.260030000000     0.851990000000     0.710520000000     0.00710597 
C450     C      0.345530000000     0.013930000000     0.755620000000     0.00759002 
C451     C      0.393110000000     0.952160000000     0.760890000000     0.00645175 
C452     C      0.305250000000     0.988280000000     0.749090000000    -0.0962509  
C453     C      0.299100000000     0.879080000000     0.718360000000    -0.0988624  
C454     C      0.356600000000     0.922410000000     0.752690000000    -0.097663   
C455     C      0.286350000000     0.921180000000     0.728930000000     0.0160743  
C456     C      0.316360000000     0.943740000000     0.741700000000     0.0147332  
C457     C      0.207390000000     0.910300000000     0.715380000000     0.0112823  
C458     C      0.243650000000     0.941630000000     0.720560000000    -0.100063   
C459     C      0.157890000000     0.946520000000     0.465210000000     0.011081   
C460     C      0.347080000000     0.027110000000     0.473190000000     0.00865833 
C461     C      0.345290000000     0.954680000000     0.487990000000     0.0103217  
C462     C      0.297830000000     0.033290000000     0.477800000000    -0.0996531  
C463     C      0.206860000000     0.945920000000     0.471860000000    -0.0989336  
C464     C      0.295410000000     0.956700000000     0.492270000000    -0.1001     
C465     C      0.230250000000     0.988310000000     0.470940000000     0.020458   
C466     C      0.273040000000     0.991800000000     0.478670000000     0.0194009  
C467     C      0.160000000000     0.019540000000     0.452770000000     0.0121926  
C468     C      0.209210000000     0.024500000000     0.457610000000    -0.0999093  
C469     C      0.570250000000     0.950300000000     0.679420000000     0.0101461  
C470     C      0.418580000000     0.915540000000     0.605610000000     0.0117202  
C471     C      0.492750000000     0.901420000000     0.590280000000     0.0109919  
C472     C      0.435790000000     0.933100000000     0.628530000000    -0.0985823  
C473     C      0.551620000000     0.924930000000     0.659260000000    -0.0990141  
C474     C      0.516070000000     0.918070000000     0.611900000000    -0.0981935  
C475     C      0.502900000000     0.934040000000     0.654280000000     0.0173301  
C476     C      0.485310000000     0.926030000000     0.632730000000     0.0176329  
C477     C      0.495910000000     0.968530000000     0.694210000000     0.010882   
C478     C      0.472840000000     0.944000000000     0.675030000000    -0.0990641  
C479     C      0.517340000000     0.953630000000     0.491830000000     0.00994319 
C480     C      0.448120000000     0.908210000000     0.390400000000     0.0111115  
C481     C      0.513860000000     0.953760000000     0.389990000000     0.0111688  
C482     C      0.443400000000     0.911590000000     0.416850000000    -0.0999128  
C483     C      0.524700000000     0.950270000000     0.465670000000    -0.0981082  
C484     C      0.510590000000     0.963250000000     0.415900000000    -0.0994362  
C485     C      0.487760000000     0.927080000000     0.452950000000     0.0213276  
C486     C      0.482810000000     0.931510000000     0.429310000000     0.0207321  
C487     C      0.461940000000     0.897310000000     0.492460000000     0.0104515  
C488     C      0.462820000000     0.892650000000     0.465970000000    -0.0996518  
C489     C      0.300860000000     0.934520000000     0.845190000000     0.0101181  
C490     C      0.228160000000     0.797270000000     0.775560000000     0.00971933 
C491     C      0.275250000000     0.767010000000     0.806060000000     0.0106348  
C492     C      0.245320000000     0.841340000000     0.779610000000    -0.0985969  
C493     C      0.295440000000     0.889690000000     0.836620000000    -0.0982433  
C494     C      0.294080000000     0.809440000000     0.812870000000    -0.100038   
C495     C      0.272310000000     0.885210000000     0.813000000000     0.020795   
C496     C      0.267960000000     0.846480000000     0.803210000000     0.018028   
C497     C      0.258720000000     0.964530000000     0.813260000000     0.0100067  
C498     C      0.248640000000     0.922560000000     0.801910000000    -0.0987991  
C499     C      0.398570000000     0.842930000000     0.683300000000     0.0113551  
C500     C      0.475420000000     0.759700000000     0.591420000000     0.0093553  
C501     C      0.533610000000     0.777000000000     0.619850000000     0.00975463 
C502     C      0.439770000000     0.782710000000     0.605120000000    -0.0986989  
C503     C      0.436090000000     0.823370000000     0.669420000000    -0.0998029  
C504     C      0.502350000000     0.802570000000     0.634970000000    -0.0994881  
C505     C      0.421810000000     0.806870000000     0.645620000000     0.0188328  
C506     C      0.453370000000     0.795230000000     0.629750000000     0.0185434  
C507     C      0.339940000000     0.814360000000     0.658700000000     0.00679959 
C508     C      0.372940000000     0.796780000000     0.640990000000    -0.096188   
C509     C      0.289510000000     0.836280000000     0.569290000000     0.00655454 
C510     C      0.425880000000     0.701360000000     0.534580000000     0.00982691 
C511     C      0.438980000000     0.771140000000     0.517680000000     0.00395664 
C512     C      0.383740000000     0.714920000000     0.547030000000    -0.0987482  
C513     C      0.338310000000     0.824600000000     0.566630000000    -0.0984756  
C514     C      0.399810000000     0.790180000000     0.530920000000    -0.0959443  
C515     C      0.345120000000     0.777910000000     0.563310000000     0.0157805  
C516     C      0.377120000000     0.761960000000     0.548730000000     0.0184162  
C517     C      0.270680000000     0.763840000000     0.581880000000     0.00685276 
C518     C      0.319030000000     0.750510000000     0.580080000000    -0.0984639  
C519     C      0.421840000000     0.723230000000     0.363930000000     0.00768388 
C520     C      0.429440000000     0.882380000000     0.812870000000     0.00698708 
C521     C      0.426070000000     0.821210000000     0.786830000000     0.0101994  
C522     C      0.425370000000     0.855690000000     0.334670000000    -0.0988188  
C523     C      0.387370000000     0.741270000000     0.847270000000    -0.102097   
C524     C      0.421640000000     0.790960000000     0.807210000000    -0.101288   
C525     C      0.390380000000     0.788370000000     0.347780000000     0.0179355  
C526     C      0.408290000000     0.811670000000     0.830090000000     0.0164905  
C527     C      0.415340000000     0.788630000000     0.388760000000     0.00822036 
C528     C      0.380490000000     0.804940000000     0.371870000000    -0.101967   
C529     C      0.501400000000     0.714050000000     0.767340000000     0.0100203  
C530     C      0.581050000000     0.543850000000     0.762800000000     0.00712408 
C531     C      0.560880000000     0.567250000000     0.803290000000     0.00649057 
C532     C      0.601080000000     0.586560000000     0.757890000000    -0.100325   
C533     C      0.523490000000     0.677210000000     0.779280000000    -0.0986219  
C534     C      0.580630000000     0.610240000000     0.798270000000    -0.0993298  
C535     C      0.550380000000     0.649220000000     0.763120000000     0.0183983  
C536     C      0.577360000000     0.619160000000     0.772390000000     0.0183285  
C537     C      0.514320000000     0.686360000000     0.727920000000     0.00946098 
C538     C      0.540450000000     0.648980000000     0.737050000000    -0.0983991  
C539     C      0.502130000000     0.342730000000     0.846970000000     0.010283   
C540     C      0.518790000000     0.148700000000     0.826410000000     0.0102967  
C541     C      0.449580000000     0.179150000000     0.811040000000     0.0100126  
C542     C      0.526620000000     0.185500000000     0.842700000000    -0.0998713  
C543     C      0.489660000000     0.302340000000     0.834470000000    -0.0984517  
C544     C      0.454290000000     0.218280000000     0.825920000000    -0.0993388  
C545     C      0.514900000000     0.263450000000     0.842470000000     0.018822   
C546     C      0.500730000000     0.224530000000     0.835820000000     0.0189245  
C547     C      0.566390000000     0.310440000000     0.866090000000     0.0107384  
C548     C      0.560340000000     0.268810000000     0.853750000000    -0.0985283  
C549     C      0.618070000000     0.653480000000     0.454000000000     0.00999221 
C550     C      0.661890000000     0.470310000000     0.472830000000     0.00690359 
C551     C      0.679500000000     0.518270000000     0.506100000000     0.00723774 
C552     C      0.676980000000     0.503450000000     0.455490000000    -0.098731   
C553     C      0.640670000000     0.619290000000     0.468120000000    -0.0984369  
C554     C      0.694850000000     0.551860000000     0.489050000000    -0.0990312  
C555     C      0.646890000000     0.577750000000     0.455570000000     0.0202868  
C556     C      0.671360000000     0.546730000000     0.465850000000     0.0177053  
C557     C      0.597680000000     0.605660000000     0.422280000000     0.0107413  
C558     C      0.619540000000     0.568110000000     0.433890000000    -0.0985778  
C559     C      0.633040000000     0.259790000000     0.515500000000     0.00899778 
C560     C      0.608330000000     0.076110000000     0.552630000000     0.0132756  
C561     C      0.592700000000     0.082330000000     0.510850000000     0.0110679  
C562     C      0.615960000000     0.122690000000     0.555740000000    -0.10075    
C563     C      0.640890000000     0.213330000000     0.511430000000    -0.0991153  
C564     C      0.600530000000     0.129470000000     0.510760000000    -0.099135   
C565     C      0.636010000000     0.187620000000     0.533610000000     0.0186105  
C566     C      0.620840000000     0.147180000000     0.533080000000     0.0192263  
C567     C      0.648890000000     0.253100000000     0.557730000000     0.00952495 
C568     C      0.656850000000     0.206250000000     0.555460000000    -0.0994693  
C569     C      0.039450000000     0.039220000000     0.333000000000     0.00775299 
C570     C      0.843670000000     0.072730000000     0.817100000000     0.0108292  
C571     C      0.891900000000     0.103470000000     0.787100000000     0.0110469  
C572     C      0.881660000000     0.048320000000     0.328160000000    -0.098789   
C573     C      0.007380000000     0.030380000000     0.813180000000    -0.0994273  
C574     C      0.933710000000     0.083700000000     0.796860000000    -0.098857   
C575     C      0.960600000000     0.026100000000     0.822690000000     0.0180962  
C576     C      0.925790000000     0.049950000000     0.315150000000     0.0205807  
C577     C      0.989760000000     0.002140000000     0.361170000000     0.00650192 
C578     C      0.956520000000     0.993420000000     0.341800000000    -0.0982066  
C579     C      0.676650000000     0.190420000000     0.771020000000     0.0116221  
C580     C      0.637150000000     0.011980000000     0.815210000000     0.00836973 
C581     C      0.685010000000     0.009720000000     0.780330000000     0.00946386 
C582     C      0.625180000000     0.057820000000     0.810830000000    -0.0990846  
C583     C      0.682690000000     0.143300000000     0.772060000000    -0.0993306  
C584     C      0.671540000000     0.053190000000     0.772530000000    -0.0989439  
C585     C      0.658080000000     0.122270000000     0.792200000000     0.0203319  
C586     C      0.654340000000     0.079600000000     0.792700000000     0.0194857  
C587     C      0.644870000000     0.195360000000     0.810080000000     0.0109876  
C588     C      0.645340000000     0.148010000000     0.813680000000    -0.0995553  
C589     C      0.879020000000     0.296790000000     0.495360000000     0.0107278  
C590     C      0.810930000000     0.314920000000     0.396770000000     0.00690925 
C591     C      0.818330000000     0.241110000000     0.410230000000     0.00881746 
C592     C      0.854810000000     0.326420000000     0.408350000000    -0.0982384  
C593     C      0.870820000000     0.279100000000     0.470980000000    -0.0985463  
C594     C      0.862210000000     0.251090000000     0.422030000000    -0.0999432  
C595     C      0.871010000000     0.310580000000     0.450900000000     0.0235052  
C596     C      0.863750000000     0.297010000000     0.428640000000     0.0195959  
C597     C      0.887080000000     0.368050000000     0.480450000000     0.0121602  
C598     C      0.872680000000     0.357290000000     0.455870000000    -0.0991864  
C599     C      0.078190000000     0.961580000000     0.586240000000     0.0110754  
C600     C      0.987780000000     0.088550000000     0.657030000000     0.0106078  
C601     C      0.934460000000     0.040490000000     0.638870000000     0.0110446  
C602     C      0.024730000000     0.076430000000     0.640130000000    -0.0990678  
C603     C      0.039680000000     0.976200000000     0.601350000000    -0.0980072  
C604     C      0.967410000000     0.026220000000     0.620390000000    -0.100112   
C605     C      0.049590000000     0.015110000000     0.615890000000     0.0187485  
C606     C      0.015530000000     0.036530000000     0.626320000000     0.0199273  
C607     C      0.132430000000     0.005770000000     0.606240000000     0.0103757  
C608     C      0.097650000000     0.024920000000     0.622380000000    -0.098481   
C609     C      0.753530000000     0.116010000000     0.569080000000     0.0120327  
C610     C      0.664240000000     0.945890000000     0.599140000000     0.0114033  
C611     C      0.718300000000     0.937840000000     0.567020000000     0.0104522  
C612     C      0.662040000000     0.993100000000     0.595780000000    -0.0985276  
C613     C      0.749700000000     0.068880000000     0.568060000000    -0.0996529  
C614     C      0.716800000000     0.984140000000     0.561140000000    -0.0985968  
C615     C      0.714560000000     0.051040000000     0.584310000000     0.0179471  
C616     C      0.700640000000     0.010580000000     0.581560000000     0.0168799  
C617     C      0.714390000000     0.121700000000     0.606710000000     0.0107293  
C618     C      0.701150000000     0.075530000000     0.606060000000    -0.0994595  
C619     C      0.663280000000     0.346360000000     0.738070000000     0.00927723 
C620     C      0.842050000000     0.270210000000     0.698070000000     0.0118616  
C621     C      0.798160000000     0.307320000000     0.668260000000     0.00796365 
C622     C      0.802650000000     0.267520000000     0.714620000000    -0.102148   
C623     C      0.700770000000     0.343890000000     0.720180000000    -0.0989405  
C624     C      0.756320000000     0.305970000000     0.683140000000    -0.0987502  
C625     C      0.736960000000     0.312210000000     0.725860000000     0.0190121  
C626     C      0.765620000000     0.298360000000     0.708890000000     0.0169625  
C627     C      0.706470000000     0.306800000000     0.767180000000     0.014053   
C628     C      0.746820000000     0.304130000000     0.751430000000    -0.103221   
C629     C      0.668340000000     0.765680000000     0.783720000000     0.00733125 
C630     C      0.727330000000     0.598090000000     0.738710000000     0.00910199 
C631     C      0.736680000000     0.599670000000     0.781400000000     0.00874499 
C632     C      0.706130000000     0.641350000000     0.738290000000    -0.0983424  
C633     C      0.660190000000     0.718740000000     0.785890000000    -0.0993288  
C634     C      0.718140000000     0.643720000000     0.783560000000    -0.0981999  
C635     C      0.670150000000     0.696150000000     0.763160000000     0.018851   
C636     C      0.694710000000     0.660110000000     0.761950000000     0.0172939  
C637     C      0.657720000000     0.761860000000     0.740580000000     0.00840778 
C638     C      0.647610000000     0.715450000000     0.742120000000    -0.100825   
C639     C      0.045830000000     0.746050000000     0.633400000000     0.00979243 
C640     C      0.973670000000     0.667870000000     0.727580000000     0.00915782 
C641     C      0.992830000000     0.614530000000     0.697840000000     0.00889371 
C642     C      0.970430000000     0.702010000000     0.709140000000    -0.0992966  
C643     C      0.037680000000     0.710250000000     0.650470000000    -0.0985636  
C644     C      0.990440000000     0.646430000000     0.678210000000    -0.0992069  
C645     C      0.012100000000     0.721920000000     0.672530000000     0.0193548  
C646     C      0.994780000000     0.691310000000     0.686630000000     0.0190375  
C647     C      0.021450000000     0.798900000000     0.661890000000     0.0107469  
C648     C      0.014440000000     0.766900000000     0.681100000000    -0.0990523  
C649     C      0.810710000000     0.411730000000     0.710660000000     0.00866005 
C650     C      0.829920000000     0.435530000000     0.601770000000     0.0115045  
C651     C      0.751500000000     0.435810000000     0.614640000000     0.0100364  
C652     C      0.845330000000     0.414950000000     0.624210000000    -0.101187   
C653     C      0.793170000000     0.424770000000     0.686840000000    -0.0978105  
C654     C      0.763490000000     0.416530000000     0.638120000000    -0.0993922  
C655     C      0.826550000000     0.419750000000     0.666920000000     0.0174961  
C656     C      0.812510000000     0.420180000000     0.644190000000     0.0200534  
C657     C      0.887780000000     0.409110000000     0.697230000000     0.011697   
C658     C      0.876060000000     0.421860000000     0.672460000000    -0.0994125  
C659     C      0.871840000000     0.724650000000     0.489610000000     0.0100969  
C660     C      0.669010000000     0.705780000000     0.516780000000     0.0117078  
C661     C      0.680830000000     0.753640000000     0.483840000000     0.0117756  
C662     C      0.718460000000     0.700330000000     0.521140000000    -0.0996085  
C663     C      0.823200000000     0.723860000000     0.482560000000    -0.09892    
C664     C      0.731090000000     0.752110000000     0.486150000000    -0.0995093  
C665     C      0.792600000000     0.706950000000     0.501550000000     0.0185922  
C666     C      0.748450000000     0.717280000000     0.501880000000     0.018402   
C667     C      0.859860000000     0.675290000000     0.521980000000     0.0102559  
C668     C      0.810400000000     0.671850000000     0.516950000000    -0.0989131  
C669     C      0.087380000000     0.676650000000     0.418490000000     0.00738229 
C670     C      0.095390000000     0.797440000000     0.341340000000     0.0105769  
C671     C      0.167450000000     0.782870000000     0.359600000000     0.0119383  
C672     C      0.073130000000     0.760430000000     0.353370000000    -0.0987506  
C673     C      0.111330000000     0.670960000000     0.395300000000    -0.100304   
C674     C      0.149750000000     0.746960000000     0.374170000000    -0.0993139  
C675     C      0.087330000000     0.695840000000     0.376810000000     0.0199206  
C676     C      0.103810000000     0.731750000000     0.367190000000     0.0209987  
C677     C      0.015160000000     0.686410000000     0.396770000000     0.00775639 
C678     C      0.040010000000     0.681300000000     0.373790000000    -0.100667   
C679     C      0.856010000000     0.485820000000     0.452690000000     0.0104436  
C680     C      0.786090000000     0.475680000000     0.849770000000     0.00766317 
C681     C      0.729190000000     0.500610000000     0.877770000000     0.00984118 
C682     C      0.812330000000     0.454630000000     0.869190000000    -0.0982849  
C683     C      0.820690000000     0.492180000000     0.434240000000    -0.0982949  
C684     C      0.752900000000     0.480270000000     0.898230000000    -0.0994809  
C685     C      0.833430000000     0.475950000000     0.410190000000     0.0177585  
C686     C      0.801810000000     0.472750000000     0.893130000000     0.0185668  
C687     C      0.915050000000     0.470630000000     0.424280000000     0.00902049 
C688     C      0.882320000000     0.470300000000     0.403960000000    -0.0972839  
C689     C      0.282040000000     0.593670000000     0.683000000000     0.00916909 
C690     C      0.256770000000     0.399760000000     0.697360000000     0.0104906  
C691     C      0.274740000000     0.418480000000     0.656880000000     0.0104225  
C692     C      0.255170000000     0.445180000000     0.705250000000    -0.0985738  
C693     C      0.298110000000     0.549740000000     0.677280000000    -0.0995371  
C694     C      0.273450000000     0.465190000000     0.661850000000    -0.0985131  
C695     C      0.281120000000     0.517170000000     0.694430000000     0.019224   
C696     C      0.273180000000     0.476710000000     0.687670000000     0.0193332  
C697     C      0.267280000000     0.574500000000     0.724200000000     0.00916421 
C698     C      0.282170000000     0.529630000000     0.720040000000    -0.0995913  
C699     C      0.369140000000     0.170670000000     0.571350000000     0.00981928 
C700     C      0.185980000000     0.183000000000     0.625520000000     0.0105477  
C701     C      0.186450000000     0.222790000000     0.588870000000     0.0111812  
C702     C      0.235350000000     0.173100000000     0.623940000000    -0.0989494  
C703     C      0.318980000000     0.175900000000     0.571360000000    -0.0986876  
C704     C      0.235920000000     0.216380000000     0.585050000000    -0.0992052  
C705     C      0.297410000000     0.166370000000     0.594840000000     0.018666   
C706     C      0.256460000000     0.182410000000     0.600280000000     0.0188574  
C707     C      0.368240000000     0.128490000000     0.607310000000     0.00994632 
C708     C      0.318000000000     0.131870000000     0.609670000000    -0.0989778  
C709     C      0.051750000000     0.277300000000     0.723520000000     0.00949204 
C710     C      0.878980000000     0.348000000000     0.772190000000     0.0109952  
C711     C      0.936910000000     0.328690000000     0.800000000000     0.0111889  
C712     C      0.905290000000     0.332620000000     0.751230000000    -0.0985706  
C713     C      0.031320000000     0.305280000000     0.742200000000    -0.0991743  
C714     C      0.968230000000     0.312670000000     0.781160000000    -0.0985226  
C715     C      0.982300000000     0.314330000000     0.738040000000     0.0197202  
C716     C      0.953820000000     0.322120000000     0.756190000000     0.0207797  
C717     C      0.990960000000     0.292480000000     0.695880000000     0.00848009 
C718     C      0.968620000000     0.322250000000     0.712890000000    -0.0984903  
C719     C      0.078090000000     0.574660000000     0.538720000000     0.00948231 
C720     C      0.036720000000     0.400810000000     0.586790000000     0.0122657  
C721     C      0.045480000000     0.456640000000     0.615940000000     0.00994343 
C722     C      0.060390000000     0.425190000000     0.567880000000    -0.0999403  
C723     C      0.063000000000     0.546620000000     0.558880000000    -0.0981537  
C724     C      0.065380000000     0.486530000000     0.597940000000    -0.0988185  
C725     C      0.067370000000     0.499610000000     0.554660000000     0.0189791  
C726     C      0.061490000000     0.472000000000     0.572650000000     0.0193245  
C727     C      0.089610000000     0.514510000000     0.512830000000     0.0111901  
C728     C      0.069290000000     0.483590000000     0.529690000000    -0.0985487  
C729     C      0.192360000000     0.467850000000     0.401890000000     0.0100855  
C730     C      0.363150000000     0.531300000000     0.455490000000     0.0104252  
C731     C      0.303700000000     0.584340000000     0.454120000000     0.0102479  
C732     C      0.342300000000     0.505700000000     0.436030000000    -0.0996527  
C733     C      0.216650000000     0.496600000000     0.418760000000    -0.0985494  
C734     C      0.278880000000     0.560940000000     0.435040000000    -0.0995251  
C735     C      0.265860000000     0.486850000000     0.421880000000     0.0190891  
C736     C      0.293440000000     0.515600000000     0.432070000000     0.0196061  
C737     C      0.253950000000     0.417410000000     0.400710000000     0.0106107  
C738     C      0.281560000000     0.442020000000     0.418110000000    -0.0989656  
C739     C      0.211800000000     0.195900000000     0.939520000000     0.00734748 
C740     C      0.254380000000     0.046030000000     0.384630000000     0.00922411 
C741     C      0.311840000000     0.071620000000     0.911900000000     0.0107286  
C742     C      0.222160000000     0.080260000000     0.392280000000    -0.102115   
C743     C      0.213850000000     0.150960000000     0.948080000000    -0.100433   
C744     C      0.283790000000     0.108710000000     0.919220000000    -0.101918   
C745     C      0.203310000000     0.122500000000     0.427940000000     0.0179787  
C746     C      0.234610000000     0.101880000000     0.914950000000     0.0205357  
C747     C      0.150820000000     0.173560000000     0.411280000000     0.00694582 
C748     C      0.156020000000     0.128920000000     0.420170000000    -0.101272   
C749     C      0.030400000000     0.379330000000     0.497740000000     0.0109658  
C750     C      0.993630000000     0.240430000000     0.569540000000     0.0104938  
C751     C      0.925210000000     0.273500000000     0.553410000000     0.00911396 
C752     C      0.018210000000     0.281920000000     0.568300000000    -0.103768   
C753     C      0.000280000000     0.353410000000     0.513360000000    -0.100646   
C754     C      0.948420000000     0.315640000000     0.551930000000    -0.101821   
C755     C      0.023230000000     0.329820000000     0.533010000000     0.017856   
C756     C      0.998280000000     0.309970000000     0.549660000000     0.0195172  
C757     C      0.098280000000     0.349740000000     0.514850000000     0.0116663  
C758     C      0.072790000000     0.321110000000     0.531280000000    -0.101309   
C759     C      0.978870000000     0.327110000000     0.875320000000     0.00853408 
C760     C      0.997010000000     0.488060000000     0.811930000000     0.00998877 
C761     C      0.926630000000     0.487300000000     0.833860000000     0.00902388 
C762     C      0.003630000000     0.441240000000     0.814490000000    -0.0988079  
C763     C      0.964880000000     0.370290000000     0.866570000000    -0.0976766  
C764     C      0.930870000000     0.440740000000     0.839120000000    -0.099171   
C765     C      0.990360000000     0.386750000000     0.845350000000     0.0184257  
C766     C      0.977030000000     0.422900000000     0.834660000000     0.01821    
C767     C      0.040420000000     0.322710000000     0.847510000000     0.0115438  
C768     C      0.034600000000     0.366970000000     0.838620000000    -0.0989886  
Cd1      Cd     0.119570000000     0.328240000000     0.926290000000     0.504606   
Cd2      Cd     0.131690000000     0.330420000000     0.149530000000     0.504333   
Cd3      Cd     0.972650000000     0.600090000000     0.968920000000     0.505658   
Cd4      Cd     0.883160000000     0.537620000000     0.251190000000     0.505006   
Cd5      Cd     0.868330000000     0.185510000000     0.122510000000     0.505848   
Cd6      Cd     0.808760000000     0.230060000000     0.321070000000     0.505869   
Cd7      Cd     0.746850000000     0.376880000000     0.031040000000     0.505442   
Cd8      Cd     0.637150000000     0.425040000000     0.315360000000     0.506085   
Cd9      Cd     0.447630000000     0.670410000000     0.947330000000     0.504989   
Cd10     Cd     0.346550000000     0.716840000000     0.229730000000     0.504214   
Cd11     Cd     0.590390000000     0.840850000000     0.043270000000     0.502907   
Cd12     Cd     0.571790000000     0.894170000000     0.263490000000     0.505322   
Cd13     Cd     0.444410000000     0.032540000000     0.046660000000     0.501942   
Cd14     Cd     0.401860000000     0.033250000000     0.339300000000     0.501942   
Cd15     Cd     0.143930000000     0.939470000000     0.875870000000     0.503367   
Cd16     Cd     0.171160000000     0.856910000000     0.133150000000     0.504192   
Cd17     Cd     0.119580000000     0.328250000000     0.426300000000     0.504634   
Cd18     Cd     0.131680000000     0.330410000000     0.649540000000     0.504298   
Cd19     Cd     0.972650000000     0.600110000000     0.468940000000     0.505677   
Cd20     Cd     0.883160000000     0.537620000000     0.751190000000     0.504986   
Cd21     Cd     0.868330000000     0.185520000000     0.622510000000     0.505846   
Cd22     Cd     0.808740000000     0.230070000000     0.821070000000     0.505852   
Cd23     Cd     0.746840000000     0.376890000000     0.531040000000     0.505472   
Cd24     Cd     0.637140000000     0.425030000000     0.815360000000     0.506118   
Cd25     Cd     0.447630000000     0.670430000000     0.447330000000     0.504979   
Cd26     Cd     0.346550000000     0.716830000000     0.729730000000     0.504178   
Cd27     Cd     0.590380000000     0.840870000000     0.543270000000     0.502904   
Cd28     Cd     0.571780000000     0.894170000000     0.763490000000     0.505314   
Cd29     Cd     0.444400000000     0.032550000000     0.546660000000     0.501947   
Cd30     Cd     0.401840000000     0.033250000000     0.839310000000     0.501975   
Cd31     Cd     0.143950000000     0.939470000000     0.375870000000     0.503321   
Cd32     Cd     0.171150000000     0.856910000000     0.633160000000     0.504195   
H1       H      0.318160000000     0.859820000000     0.230780000000     0.0544387  
H2       H      0.364120000000     0.021410000000     0.239470000000     0.0318358  
H3       H      0.196290000000     0.896330000000     0.232060000000     0.0289512  
H4       H      0.229710000000     0.962900000000     0.233860000000     0.045205   
H5       H      0.288970000000     0.005570000000     0.234770000000     0.0449156  
H6       H      0.372710000000     0.900830000000     0.240260000000     0.0502816  
H7       H      0.271930000000     0.827740000000     0.198350000000     0.0560182  
H8       H      0.334600000000     0.043850000000     0.263400000000     0.0438721  
H9       H      0.250850000000     0.959890000000     0.204610000000     0.0572674  
H10      H      0.344950000000     0.904000000000     0.267830000000     0.050967   
H11      H      0.178690000000     0.926710000000     0.207610000000     0.0430564  
H12      H      0.413250000000     0.961200000000     0.245530000000     0.0399943  
H13      H      0.320390000000     0.885370000000     0.203050000000     0.0565119  
H14      H      0.282280000000     0.987340000000     0.264070000000     0.0506539  
H15      H      0.415360000000     0.935700000000     0.273090000000     0.0505918  
H16      H      0.246480000000     0.835760000000     0.225940000000     0.0411837  
H17      H      0.208890000000     0.932710000000     0.989650000000     0.0477454  
H18      H      0.351380000000     0.015130000000     0.955220000000     0.0308375  
H19      H      0.141350000000     0.027510000000     0.968830000000     0.0284547  
H20      H      0.213030000000     0.054020000000     0.967410000000     0.0444712  
H21      H      0.285860000000     0.054470000000     0.964090000000     0.0429646  
H22      H      0.282550000000     0.925470000000     0.987780000000     0.0463148  
H23      H      0.147040000000     0.914620000000     0.960370000000     0.0435954  
H24      H      0.364310000000     0.057550000000     0.974330000000     0.0421778  
H25      H      0.226520000000     0.027350000000     0.940690000000     0.0570367  
H26      H      0.289290000000     0.961890000000     0.011050000000     0.0580481  
H27      H      0.149620000000     0.041590000000     0.938990000000     0.0359532  
H28      H      0.351090000000     0.942310000000     0.970210000000     0.0280743  
H29      H      0.224210000000     0.924490000000     0.959730000000     0.0580761  
H30      H      0.293380000000     0.049360000000     0.994710000000     0.0569863  
H31      H      0.360160000000     0.932530000000     0.000530000000     0.0362225  
H32      H      0.138360000000     0.956290000000     0.980630000000     0.0314835  
H33      H      0.573100000000     0.932150000000     0.144180000000     0.046595   
H34      H      0.413940000000     0.881440000000     0.107620000000     0.0262751  
H35      H      0.500580000000     0.001070000000     0.188110000000     0.0311053  
H36      H      0.443830000000     0.962900000000     0.169870000000     0.0455729  
H37      H      0.415980000000     0.918430000000     0.142540000000     0.0454872  
H38      H      0.542190000000     0.895140000000     0.116260000000     0.0563944  
H39      H      0.603290000000     0.937940000000     0.184210000000     0.0434987  
H40      H      0.385840000000     0.929330000000     0.101520000000     0.0426741  
H41      H      0.460660000000     0.914430000000     0.182530000000     0.051215   
H42      H      0.532460000000     0.947890000000     0.107300000000     0.0643278  
H43      H      0.474430000000     0.969430000000     0.209850000000     0.0393712  
H44      H      0.486030000000     0.867780000000     0.092820000000     0.0382233  
H45      H      0.555060000000     0.891280000000     0.163290000000     0.0553183  
H46      H      0.429410000000     0.967140000000     0.128710000000     0.061267   
H47      H      0.514650000000     0.904590000000     0.074870000000     0.0591975  
H48      H      0.574870000000     0.982910000000     0.173410000000     0.031035   
H49      H      0.527860000000     0.982670000000     0.959220000000     0.0499397  
H50      H      0.468800000000     0.880530000000     0.386370000000     0.0284452  
H51      H      0.435970000000     0.920190000000     0.996980000000     0.0425825  
H52      H      0.427730000000     0.891400000000     0.960490000000     0.0469996  
H53      H      0.437570000000     0.879380000000     0.923080000000     0.0477128  
H54      H      0.545070000000     0.964140000000     0.922380000000     0.047696   
H55      H      0.547710000000     0.965870000000     0.000210000000     0.0516896  
H56      H      0.414940000000     0.903030000000     0.882810000000     0.0330059  
H57      H      0.478520000000     0.862370000000     0.961610000000     0.0625605  
H58      H      0.495680000000     0.994560000000     0.918260000000     0.0601097  
H59      H      0.452590000000     0.867210000000     0.000560000000     0.0404009  
H60      H      0.534970000000     0.925730000000     0.887650000000     0.0347001  
H61      H      0.556380000000     0.933750000000     0.962460000000     0.058928   
H62      H      0.413560000000     0.930410000000     0.920860000000     0.055356   
H63      H      0.530260000000     0.980110000000     0.880950000000     0.0452777  
H64      H      0.490320000000     0.976360000000     0.995010000000     0.0512872  
H65      H      0.328720000000     0.875410000000     0.335870000000     0.0460481  
H66      H      0.199130000000     0.792130000000     0.287060000000     0.0312316  
H67      H      0.290620000000     0.976410000000     0.306380000000     0.0438226  
H68      H      0.257380000000     0.924840000000     0.283240000000     0.0452754  
H69      H      0.216510000000     0.862330000000     0.277600000000     0.0462515  
H70      H      0.295660000000     0.809770000000     0.332090000000     0.045431   
H71      H      0.305710000000     0.934950000000     0.864320000000     0.0495528  
H72      H      0.216880000000     0.793840000000     0.257330000000     0.0404234  
H73      H      0.212460000000     0.917350000000     0.303280000000     0.0608931  
H74      H      0.328160000000     0.811750000000     0.306000000000     0.0545594  
H75      H      0.232660000000     0.987550000000     0.308770000000     0.0445322  
H76      H      0.245330000000     0.761050000000     0.316740000000     0.0284519  
H77      H      0.275630000000     0.872650000000     0.349790000000     0.0611772  
H78      H      0.269700000000     0.849160000000     0.265890000000     0.0532157  
H79      H      0.299760000000     0.742290000000     0.310070000000     0.0383149  
H80      H      0.330910000000     0.948090000000     0.337020000000     0.0516589  
H81      H      0.462280000000     0.847210000000     0.167460000000     0.0470887  
H82      H      0.476060000000     0.726720000000     0.097270000000     0.0307836  
H83      H      0.331030000000     0.846570000000     0.153410000000     0.0376944  
H84      H      0.363040000000     0.808780000000     0.123680000000     0.0463808  
H85      H      0.410710000000     0.761830000000     0.105380000000     0.0442433  
H86      H      0.510360000000     0.794520000000     0.153220000000     0.0484051  
H87      H      0.409090000000     0.847950000000     0.201570000000     0.038715   
H88      H      0.466580000000     0.759970000000     0.072750000000     0.039143   
H89      H      0.369260000000     0.762390000000     0.140880000000     0.0582109  
H90      H      0.509640000000     0.835970000000     0.132430000000     0.0524082  
H91      H      0.309130000000     0.795580000000     0.158560000000     0.0559121  
H92      H      0.532890000000     0.744210000000     0.126030000000     0.0325933  
H93      H      0.449760000000     0.797060000000     0.179670000000     0.0637703  
H94      H      0.430670000000     0.811230000000     0.095410000000     0.0507278  
H95      H      0.567870000000     0.788740000000     0.121960000000     0.0421954  
H96      H      0.390530000000     0.873810000000     0.175690000000     0.0233629  
H97      H      0.350860000000     0.843520000000     0.052000000000     0.0483587  
H98      H      0.454360000000     0.705740000000     0.046460000000     0.0345102  
H99      H      0.253960000000     0.756080000000     0.065270000000     0.0358146  
H100     H      0.318280000000     0.717330000000     0.074950000000     0.0457954  
H101     H      0.385600000000     0.701040000000     0.064660000000     0.0443684  
H102     H      0.412960000000     0.818370000000     0.039630000000     0.0539982  
H103     H      0.287350000000     0.869550000000     0.074390000000     0.0446539  
H104     H      0.423720000000     0.667530000000     0.030740000000     0.0441628  
H105     H      0.334350000000     0.752350000000     0.097510000000     0.0497167  
H106     H      0.374630000000     0.800060000000     0.018030000000     0.0535954  
H107     H      0.254600000000     0.745290000000     0.095800000000     0.0455439  
H108     H      0.469220000000     0.775360000000     0.028280000000     0.0589997  
H109     H      0.356370000000     0.834450000000     0.082440000000     0.0501377  
H110     H      0.354980000000     0.701360000000     0.037770000000     0.0563452  
H111     H      0.444110000000     0.788600000000     0.001260000000     0.0509962  
H112     H      0.273330000000     0.833040000000     0.052070000000     0.034542   
H113     H      0.392070000000     0.726810000000     0.330070000000     0.0517273  
H114     H      0.395660000000     0.891790000000     0.307400000000     0.0364132  
H115     H      0.447690000000     0.802950000000     0.884380000000     0.0325904  
H116     H      0.377710000000     0.838980000000     0.873330000000     0.0440631  
H117     H      0.403410000000     0.873550000000     0.846220000000     0.0505995  
H118     H      0.396600000000     0.767940000000     0.301610000000     0.0613865  
H119     H      0.416990000000     0.688990000000     0.864830000000     0.0448902  
H120     H      0.448120000000     0.911100000000     0.317140000000     0.0628568  
H121     H      0.347670000000     0.793070000000     0.877460000000     0.0538775  
H122     H      0.453640000000     0.774770000000     0.309860000000     0.0571684  
H123     H      0.406370000000     0.798900000000     0.906570000000     0.0410425  
H124     H      0.392420000000     0.830460000000     0.281070000000     0.0341273  
H125     H      0.353910000000     0.731700000000     0.353150000000     0.0541812  
H126     H      0.458250000000     0.853300000000     0.843070000000     0.0591339  
H127     H      0.442270000000     0.805050000000     0.272040000000     0.0529561  
H128     H      0.455240000000     0.728770000000     0.856510000000     0.0348046  
H129     H      0.545060000000     0.690640000000     0.292910000000     0.0449402  
H130     H      0.546440000000     0.543670000000     0.256410000000     0.0346465  
H131     H      0.537890000000     0.712070000000     0.224260000000     0.0319774  
H132     H      0.571670000000     0.648430000000     0.226960000000     0.0422884  
H133     H      0.601040000000     0.592040000000     0.238970000000     0.0440321  
H134     H      0.564240000000     0.633200000000     0.309660000000     0.0456838  
H135     H      0.476420000000     0.727700000000     0.279210000000     0.0397394  
H136     H      0.599640000000     0.519990000000     0.252820000000     0.0448765  
H137     H      0.521540000000     0.620250000000     0.233030000000     0.0548078  
H138     H      0.616030000000     0.610110000000     0.303310000000     0.0522295  
H139     H      0.498520000000     0.677910000000     0.211180000000     0.0419942  
H140     H      0.524770000000     0.568520000000     0.299900000000     0.0365596  
H141     H      0.497500000000     0.658070000000     0.287750000000     0.0559955  
H142     H      0.636250000000     0.585940000000     0.263190000000     0.0554176  
H143     H      0.565520000000     0.560030000000     0.321990000000     0.0457342  
H144     H      0.526910000000     0.738230000000     0.263980000000     0.039679   
H145     H      0.453640000000     0.298430000000     0.337260000000     0.0465471  
H146     H      0.535590000000     0.155270000000     0.309620000000     0.0287232  
H147     H      0.547140000000     0.309770000000     0.382540000000     0.0322993  
H148     H      0.566190000000     0.244460000000     0.367080000000     0.0474023  
H149     H      0.562770000000     0.190970000000     0.342490000000     0.0436158  
H150     H      0.444220000000     0.244390000000     0.314530000000     0.0465404  
H151     H      0.490630000000     0.369850000000     0.336670000000     0.0431506  
H152     H      0.534080000000     0.120330000000     0.333960000000     0.0395898  
H153     H      0.586040000000     0.265850000000     0.340050000000     0.0585548  
H154     H      0.430640000000     0.216500000000     0.340640000000     0.0576563  
H155     H      0.601760000000     0.314640000000     0.370680000000     0.0462456  
H156     H      0.465790000000     0.185070000000     0.294010000000     0.0316354  
H157     H      0.495760000000     0.306540000000     0.315600000000     0.0563099  
H158     H      0.516860000000     0.176490000000     0.360590000000     0.0571794  
H159     H      0.414030000000     0.173300000000     0.307630000000     0.0440757  
H160     H      0.484530000000     0.343530000000     0.363930000000     0.0317924  
H161     H      0.673380000000     0.631890000000     0.973250000000     0.0441813  
H162     H      0.625530000000     0.472990000000     0.975040000000     0.0363101  
H163     H      0.622550000000     0.620900000000     0.910880000000     0.0309276  
H164     H      0.640800000000     0.553580000000     0.920410000000     0.0469508  
H165     H      0.659010000000     0.498020000000     0.939090000000     0.046422   
H166     H      0.689840000000     0.582300000000     0.997570000000     0.0442249  
H167     H      0.605780000000     0.678040000000     0.965940000000     0.0437952  
H168     H      0.668890000000     0.439050000000     0.965430000000     0.044836   
H169     H      0.593250000000     0.545630000000     0.938800000000     0.0588519  
H170     H      0.730980000000     0.548480000000     0.986150000000     0.0551384  
H171     H      0.570320000000     0.594810000000     0.910960000000     0.0453729  
H172     H      0.644320000000     0.524210000000     0.010530000000     0.0356656  
H173     H      0.620760000000     0.613680000000     0.984040000000     0.0559064  
H174     H      0.712550000000     0.498530000000     0.951650000000     0.0503445  
H175     H      0.699010000000     0.521090000000     0.022340000000     0.0440834  
H176     H      0.643150000000     0.667960000000     0.942420000000     0.0296965  
H177     H      0.617140000000     0.204170000000     0.997760000000     0.0464997  
H178     H      0.640410000000     0.061210000000     0.048140000000     0.0287409  
H179     H      0.613590000000     0.258100000000     0.062290000000     0.0335174  
H180     H      0.643720000000     0.192470000000     0.071670000000     0.0463893  
H181     H      0.646240000000     0.125380000000     0.066320000000     0.0455186  
H182     H      0.622390000000     0.135860000000     0.995670000000     0.045753   
H183     H      0.641500000000     0.277070000000     0.999400000000     0.0445287  
H184     H      0.596830000000     0.062460000000     0.069290000000     0.0380426  
H185     H      0.692980000000     0.200350000000     0.054890000000     0.059125   
H186     H      0.568340000000     0.145180000000     0.007810000000     0.0571078  
H187     H      0.669140000000     0.265310000000     0.072280000000     0.0465091  
H188     H      0.624610000000     0.066530000000     0.007040000000     0.02961    
H189     H      0.674780000000     0.208690000000     0.004480000000     0.0564194  
H190     H      0.587830000000     0.135900000000     0.065710000000     0.0572796  
H191     H      0.569220000000     0.073970000000     0.996790000000     0.0396678  
H192     H      0.597250000000     0.264610000000     0.018930000000     0.0338568  
H193     H      0.011900000000     0.055140000000     0.300110000000     0.0460949  
H194     H      0.827900000000     0.052650000000     0.303750000000     0.0292008  
H195     H      0.979760000000     0.031330000000     0.870160000000     0.0340019  
H196     H      0.923570000000     0.991230000000     0.849940000000     0.046339   
H197     H      0.870100000000     0.015670000000     0.829450000000     0.045789   
H198     H      0.951610000000     0.070360000000     0.281740000000     0.0461372  
H199     H      0.073580000000     0.040470000000     0.825930000000     0.0445516  
H200     H      0.818210000000     0.079400000000     0.330530000000     0.0416826  
H201     H      0.963730000000     0.962390000000     0.334180000000     0.0570031  
H202     H      0.954240000000     0.108630000000     0.804730000000     0.0564266  
H203     H      0.988250000000     0.976540000000     0.874080000000     0.0452575  
H204     H      0.877230000000     0.081660000000     0.274230000000     0.0308625  
H205     H      0.016830000000     0.000590000000     0.304640000000     0.0564354  
H206     H      0.886980000000     0.060610000000     0.845960000000     0.0557505  
H207     H      0.900670000000     0.132510000000     0.277760000000     0.0423047  
H208     H      0.031710000000     0.070460000000     0.840330000000     0.0341426  
H209     H      0.671230000000     0.130690000000     0.255160000000     0.0469317  
H210     H      0.666420000000     0.011100000000     0.326850000000     0.0326063  
H211     H      0.612800000000     0.204280000000     0.302110000000     0.0279113  
H212     H      0.612050000000     0.139220000000     0.319880000000     0.0436701  
H213     H      0.626970000000     0.073310000000     0.327990000000     0.0482764  
H214     H      0.701330000000     0.066820000000     0.264290000000     0.0471618  
H215     H      0.701340000000     0.204070000000     0.258910000000     0.0351205  
H216     H      0.609480000000     0.996420000000     0.324440000000     0.0488562  
H217     H      0.669380000000     0.140770000000     0.327680000000     0.0596617  
H218     H      0.645290000000     0.050760000000     0.259150000000     0.0589275  
H219     H      0.647200000000     0.211400000000     0.327130000000     0.0392853  
H220     H      0.714450000000     0.012420000000     0.291770000000     0.0313671  
H221     H      0.718550000000     0.136610000000     0.273890000000     0.0601969  
H222     H      0.590440000000     0.059480000000     0.304760000000     0.0619317  
H223     H      0.694740000000     0.990960000000     0.264940000000     0.0440811  
H224     H      0.643210000000     0.197430000000     0.264100000000     0.028204   
H225     H      0.896600000000     0.255100000000     0.967900000000     0.0483996  
H226     H      0.783660000000     0.321400000000     0.909220000000     0.0369204  
H227     H      0.923370000000     0.363510000000     0.981680000000     0.0291395  
H228     H      0.896380000000     0.372410000000     0.943840000000     0.0478747  
H229     H      0.853120000000     0.359760000000     0.913030000000     0.0436592  
H230     H      0.866420000000     0.229130000000     0.936620000000     0.0475418  
H231     H      0.862460000000     0.276920000000     0.008540000000     0.0409266  
H232     H      0.805950000000     0.335080000000     0.381320000000     0.0439288  
H233     H      0.839280000000     0.370680000000     0.952990000000     0.0579887  
H234     H      0.889560000000     0.244690000000     0.909650000000     0.0600504  
H235     H      0.880060000000     0.401240000000     0.984260000000     0.0402236  
H236     H      0.791390000000     0.244840000000     0.923220000000     0.0342566  
H237     H      0.838080000000     0.263470000000     0.971180000000     0.0559102  
H238     H      0.881890000000     0.323090000000     0.895470000000     0.052762   
H239     H      0.818360000000     0.208100000000     0.904510000000     0.0442801  
H240     H      0.915040000000     0.295390000000     0.998820000000     0.0258329  
H241     H      0.011610000000     0.981920000000     0.089380000000     0.0465371  
H242     H      0.989690000000     0.067680000000     0.172390000000     0.0313687  
H243     H      0.134750000000     0.025300000000     0.090340000000     0.0296352  
H244     H      0.103520000000     0.059010000000     0.122200000000     0.0453371  
H245     H      0.055050000000     0.073460000000     0.150790000000     0.0470318  
H246     H      0.962290000000     0.992210000000     0.118490000000     0.0471706  
H247     H      0.071470000000     0.929690000000     0.079660000000     0.0423919  
H248     H      0.993090000000     0.120920000000     0.163180000000     0.0448018  
H249     H      0.103610000000     0.013250000000     0.140250000000     0.0582565  
H250     H      0.959030000000     0.041380000000     0.103640000000     0.0582899  
H251     H      0.165250000000     0.006310000000     0.114830000000     0.0417517  
H252     H      0.937600000000     0.019610000000     0.154190000000     0.0310475  
H253     H      0.030470000000     0.950530000000     0.113350000000     0.0589247  
H254     H      0.029710000000     0.102270000000     0.127590000000     0.0593891  
H255     H      0.900290000000     0.037310000000     0.132100000000     0.0416966  
H256     H      0.080800000000     0.982620000000     0.070970000000     0.0305383  
H257     H      0.742040000000     0.060990000000     0.049720000000     0.0451942  
H258     H      0.690230000000     0.939060000000     0.112230000000     0.0313045  
H259     H      0.687380000000     0.140440000000     0.098980000000     0.0257949  
H260     H      0.664710000000     0.074640000000     0.108200000000     0.0444039  
H261     H      0.660230000000     0.006510000000     0.113460000000     0.0443853  
H262     H      0.750790000000     0.992350000000     0.055630000000     0.0463775  
H263     H      0.783150000000     0.126030000000     0.059150000000     0.0430099  
H264     H      0.632300000000     0.934630000000     0.106290000000     0.0378092  
H265     H      0.716340000000     0.059920000000     0.121300000000     0.0546407  
H266     H      0.694320000000     0.989130000000     0.046180000000     0.0575841  
H267     H      0.717430000000     0.131810000000     0.125080000000     0.0423232  
H268     H      0.745140000000     0.932580000000     0.079860000000     0.0321469  
H269     H      0.782210000000     0.055090000000     0.072660000000     0.05797    
H270     H      0.630850000000     0.000830000000     0.086650000000     0.0573613  
H271     H      0.726590000000     0.919890000000     0.051110000000     0.0431453  
H272     H      0.724150000000     0.129730000000     0.060480000000     0.0269765  
H273     H      0.684410000000     0.336330000000     0.203520000000     0.0450128  
H274     H      0.860300000000     0.299260000000     0.202100000000     0.0243444  
H275     H      0.685660000000     0.278960000000     0.264140000000     0.0355725  
H276     H      0.760170000000     0.272420000000     0.254180000000     0.0680977  
H277     H      0.816830000000     0.272950000000     0.232070000000     0.0519639  
H278     H      0.739510000000     0.335980000000     0.180000000000     0.0422751  
H279     H      0.644070000000     0.375280000000     0.235020000000     0.0440949  
H280     H      0.864710000000     0.243620000000     0.201290000000     0.0418268  
H281     H      0.771650000000     0.327190000000     0.257330000000     0.0675718  
H282     H      0.734520000000     0.280680000000     0.176730000000     0.0569935  
H283     H      0.717570000000     0.305930000000     0.285570000000     0.0593807  
H284     H      0.816010000000     0.336550000000     0.172140000000     0.0311003  
H285     H      0.716300000000     0.375040000000     0.218630000000     0.0523718  
H286     H      0.788910000000     0.235510000000     0.214110000000     0.0604041  
H287     H      0.788720000000     0.308040000000     0.149630000000     0.0440283  
H288     H      0.640670000000     0.319610000000     0.235170000000     0.0317513  
H289     H      0.680180000000     0.708090000000     0.300790000000     0.0452408  
H290     H      0.700780000000     0.574360000000     0.240100000000     0.032204   
H291     H      0.693520000000     0.765730000000     0.236830000000     0.0341793  
H292     H      0.657130000000     0.701830000000     0.225230000000     0.0444779  
H293     H      0.675750000000     0.637890000000     0.227700000000     0.0424719  
H294     H      0.694900000000     0.642740000000     0.298470000000     0.0443175  
H295     H      0.656370000000     0.781210000000     0.299770000000     0.0429179  
H296     H      0.744320000000     0.592690000000     0.221860000000     0.0431805  
H297     H      0.611440000000     0.711360000000     0.244020000000     0.0545061  
H298     H      0.745670000000     0.665220000000     0.287830000000     0.0558297  
H299     H      0.639150000000     0.775220000000     0.225730000000     0.0433515  
H300     H      0.709020000000     0.577210000000     0.283470000000     0.0366399  
H301     H      0.625000000000     0.713360000000     0.290410000000     0.0516183  
H302     H      0.728960000000     0.662990000000     0.229220000000     0.0543225  
H303     H      0.760140000000     0.594050000000     0.295890000000     0.0463041  
H304     H      0.704560000000     0.770970000000     0.282530000000     0.0345878  
H305     H      0.019570000000     0.686310000000     0.140400000000     0.0457373  
H306     H      0.007770000000     0.667910000000     0.234740000000     0.0340006  
H307     H      0.989930000000     0.802440000000     0.152200000000     0.0312063  
H308     H      0.983210000000     0.776090000000     0.189810000000     0.0458553  
H309     H      0.983780000000     0.730290000000     0.217580000000     0.0460387  
H310     H      0.017080000000     0.637430000000     0.166000000000     0.0455725  
H311     H      0.072520000000     0.737040000000     0.121130000000     0.0442922  
H312     H      0.950690000000     0.675480000000     0.242030000000     0.0428312  
H313     H      0.041910000000     0.769460000000     0.193800000000     0.057193   
H314     H      0.958340000000     0.643140000000     0.169080000000     0.0552782  
H315     H      0.029280000000     0.829520000000     0.169830000000     0.0424475  
H316     H      0.027620000000     0.612710000000     0.203920000000     0.0344426  
H317     H      0.070100000000     0.697110000000     0.155740000000     0.0563159  
H318     H      0.935130000000     0.707640000000     0.205000000000     0.0550866  
H319     H      0.983950000000     0.583460000000     0.190790000000     0.0443177  
H320     H      0.015270000000     0.750820000000     0.123050000000     0.0326216  
H321     H      0.763300000000     0.405650000000     0.183840000000     0.0419811  
H322     H      0.832090000000     0.469820000000     0.103980000000     0.0331734  
H323     H      0.885980000000     0.374640000000     0.198240000000     0.0236057  
H324     H      0.895170000000     0.400570000000     0.161060000000     0.0486118  
H325     H      0.877800000000     0.429260000000     0.128020000000     0.0475221  
H326     H      0.742170000000     0.432530000000     0.150970000000     0.0455343  
H327     H      0.788240000000     0.423330000000     0.224490000000     0.0437062  
H328     H      0.852870000000     0.426680000000     0.087520000000     0.043158   
H329     H      0.887630000000     0.454200000000     0.169480000000     0.0604938  
H330     H      0.754480000000     0.383020000000     0.137960000000     0.0544135  
H331     H      0.922220000000     0.418550000000     0.201270000000     0.0400663  
H332     H      0.751550000000     0.470220000000     0.116570000000     0.0336393  
H333     H      0.783040000000     0.457940000000     0.187660000000     0.0593342  
H334     H      0.850460000000     0.381150000000     0.121110000000     0.0613152  
H335     H      0.717430000000     0.426230000000     0.109940000000     0.0443678  
H336     H      0.810920000000     0.377190000000     0.211630000000     0.0283993  
H337     H      0.814890000000     0.756350000000     0.977800000000     0.0467759  
H338     H      0.658150000000     0.681320000000     0.004440000000     0.0273028  
H339     H      0.864920000000     0.700870000000     0.034680000000     0.0323896  
H340     H      0.794070000000     0.671240000000     0.034170000000     0.0465694  
H341     H      0.723800000000     0.666390000000     0.023520000000     0.0443026  
H342     H      0.744170000000     0.748600000000     0.968230000000     0.0460752  
H343     H      0.892510000000     0.731700000000     0.974150000000     0.0441544  
H344     H      0.650620000000     0.700830000000     0.033250000000     0.0429486  
H345     H      0.803860000000     0.641680000000     0.008160000000     0.0566075  
H346     H      0.742620000000     0.782350000000     0.993230000000     0.0579116  
H347     H      0.871580000000     0.645980000000     0.030170000000     0.0440909  
H348     H      0.670480000000     0.728480000000     0.971770000000     0.0288547  
H349     H      0.819460000000     0.704100000000     0.966850000000     0.0569706  
H350     H      0.727020000000     0.716410000000     0.037590000000     0.0575141  
H351     H      0.670850000000     0.783780000000     0.976030000000     0.0435522  
H352     H      0.876620000000     0.750270000000     0.002320000000     0.0328639  
H353     H      0.146490000000     0.678910000000     0.897610000000     0.0459367  
H354     H      0.108400000000     0.786750000000     0.824290000000     0.0296518  
H355     H      0.011100000000     0.720190000000     0.900320000000     0.0364534  
H356     H      0.021290000000     0.697240000000     0.859900000000     0.0473293  
H357     H      0.056310000000     0.742590000000     0.839440000000     0.0465131  
H358     H      0.174110000000     0.721360000000     0.872350000000     0.0458572  
H359     H      0.103690000000     0.656580000000     0.931610000000     0.0441964  
H360     H      0.070210000000     0.821850000000     0.837750000000     0.0420139  
H361     H      0.040190000000     0.647800000000     0.869000000000     0.0564536  
H362     H      0.148580000000     0.756990000000     0.892590000000     0.0580761  
H363     H      0.981550000000     0.672960000000     0.894780000000     0.0453812  
H364     H      0.179050000000     0.770170000000     0.842680000000     0.027723   
H365     H      0.110530000000     0.637480000000     0.890440000000     0.0548052  
H366     H      0.047520000000     0.772740000000     0.865420000000     0.0562403  
H367     H      0.196390000000     0.796900000000     0.868400000000     0.0394582  
H368     H      0.091240000000     0.709470000000     0.924160000000     0.0372842  
H369     H      0.790720000000     0.475900000000     0.940680000000     0.0477182  
H370     H      0.799170000000     0.507760000000     0.347370000000     0.0385373  
H371     H      0.918370000000     0.438380000000     0.430940000000     0.0291322  
H372     H      0.886930000000     0.440010000000     0.395010000000     0.0400477  
H373     H      0.847380000000     0.457990000000     0.364290000000     0.0437286  
H374     H      0.747370000000     0.501370000000     0.913130000000     0.0433086  
H375     H      0.847300000000     0.503990000000     0.968440000000     0.0462023  
H376     H      0.791480000000     0.458440000000     0.333310000000     0.0513473  
H377     H      0.891810000000     0.495580000000     0.891800000000     0.052788   
H378     H      0.737030000000     0.450010000000     0.402270000000     0.0573343  
H379     H      0.948150000000     0.480120000000     0.917840000000     0.0449752  
H380     H      0.741170000000     0.533190000000     0.876160000000     0.0316112  
H381     H      0.813460000000     0.525960000000     0.932890000000     0.055812   
H382     H      0.804500000000     0.420920000000     0.369420000000     0.0573317  
H383     H      0.693210000000     0.501970000000     0.381550000000     0.0410809  
H384     H      0.856250000000     0.452380000000     0.957520000000     0.0332903  
H385     H      0.287120000000     0.543860000000     0.159260000000     0.0460347  
H386     H      0.291030000000     0.388120000000     0.199760000000     0.0314498  
H387     H      0.230890000000     0.576120000000     0.221660000000     0.0340132  
H388     H      0.260090000000     0.510360000000     0.230970000000     0.046558   
H389     H      0.274380000000     0.446390000000     0.221630000000     0.04638    
H390     H      0.302970000000     0.478430000000     0.153110000000     0.0458582  
H391     H      0.299340000000     0.616130000000     0.171480000000     0.0445448  
H392     H      0.234840000000     0.380780000000     0.208660000000     0.0437609  
H393     H      0.316420000000     0.525770000000     0.226530000000     0.056078   
H394     H      0.243380000000     0.478480000000     0.153690000000     0.0562879  
H395     H      0.274110000000     0.582930000000     0.242550000000     0.0437284  
H396     H      0.309080000000     0.407230000000     0.159700000000     0.0311556  
H397     H      0.334790000000     0.549210000000     0.177510000000     0.0558419  
H398     H      0.220270000000     0.453470000000     0.209170000000     0.0572284  
H399     H      0.266370000000     0.412940000000     0.138380000000     0.0422073  
H400     H      0.246170000000     0.595540000000     0.179000000000     0.0344499  
H401     H      0.313040000000     0.208510000000     0.065890000000     0.0464137  
H402     H      0.167440000000     0.157650000000     0.116710000000     0.0290056  
H403     H      0.383430000000     0.154630000000     0.117080000000     0.0312754  
H404     H      0.311610000000     0.136800000000     0.128420000000     0.0459805  
H405     H      0.238540000000     0.139620000000     0.128320000000     0.0455652  
H406     H      0.239890000000     0.208920000000     0.066340000000     0.0458919  
H407     H      0.381650000000     0.172400000000     0.053240000000     0.0428571  
H408     H      0.175630000000     0.183360000000     0.144000000000     0.042044   
H409     H      0.302920000000     0.101750000000     0.104520000000     0.056689   
H410     H      0.253280000000     0.246190000000     0.088630000000     0.0574136  
H411     H      0.379580000000     0.099010000000     0.115450000000     0.0420217  
H412     H      0.168560000000     0.196830000000     0.080290000000     0.0290762  
H413     H      0.304580000000     0.154870000000     0.058100000000     0.0557873  
H414     H      0.252990000000     0.191530000000     0.137330000000     0.0564171  
H415     H      0.175920000000     0.252200000000     0.080310000000     0.040574   
H416     H      0.383860000000     0.197080000000     0.081140000000     0.031726   
H417     H      0.037400000000     0.289120000000     0.258880000000     0.0461446  
H418     H      0.887470000000     0.381200000000     0.275280000000     0.0384286  
H419     H      0.977060000000     0.260820000000     0.198580000000     0.0390999  
H420     H      0.932850000000     0.318070000000     0.210110000000     0.0444129  
H421     H      0.903120000000     0.357490000000     0.237980000000     0.0499288  
H422     H      0.000960000000     0.326860000000     0.284740000000     0.0435779  
H423     H      0.088190000000     0.276570000000     0.225730000000     0.0448845  
H424     H      0.843180000000     0.346360000000     0.268390000000     0.040366   
H425     H      0.977320000000     0.354770000000     0.208250000000     0.0577395  
H426     H      0.971240000000     0.278330000000     0.283080000000     0.0574015  
H427     H      0.982950000000     0.302120000000     0.177830000000     0.0474946  
H428     H      0.943570000000     0.362280000000     0.302560000000     0.0295678  
H429     H      0.049360000000     0.335300000000     0.242550000000     0.0577964  
H430     H      0.888970000000     0.304210000000     0.244420000000     0.0524973  
H431     H      0.943880000000     0.312600000000     0.316690000000     0.0393485  
H432     H      0.039320000000     0.245060000000     0.226160000000     0.0339131  
H433     H      0.082680000000     0.556140000000     0.074220000000     0.0455665  
H434     H      0.000820000000     0.408020000000     0.085910000000     0.0297917  
H435     H      0.125570000000     0.516950000000     0.016520000000     0.0317866  
H436     H      0.089700000000     0.454980000000     0.028450000000     0.0466156  
H437     H      0.042580000000     0.418020000000     0.051530000000     0.0463116  
H438     H      0.048580000000     0.516830000000     0.100600000000     0.0453206  
H439     H      0.062330000000     0.605740000000     0.040340000000     0.0438162  
H440     H      0.040930000000     0.367120000000     0.083420000000     0.0384301  
H441     H      0.035130000000     0.476470000000     0.023920000000     0.0578588  
H442     H      0.101000000000     0.490740000000     0.101870000000     0.0553829  
H443     H      0.085840000000     0.502870000000     0.994760000000     0.0452399  
H444     H      0.009160000000     0.461740000000     0.116390000000     0.0306976  
H445     H      0.027720000000     0.553450000000     0.062530000000     0.0557558  
H446     H      0.094840000000     0.413610000000     0.066270000000     0.0566819  
H447     H      0.058600000000     0.464320000000     0.133410000000     0.0425192  
H448     H      0.114400000000     0.579200000000     0.040160000000     0.0319098  
H449     H      0.211870000000     0.528490000000     0.911860000000     0.0464407  
H450     H      0.350320000000     0.519580000000     0.972370000000     0.033038   
H451     H      0.262390000000     0.428330000000     0.882930000000     0.0318852  
H452     H      0.315870000000     0.441310000000     0.911300000000     0.046913   
H453     H      0.347420000000     0.472720000000     0.941050000000     0.0471757  
H454     H      0.243490000000     0.563360000000     0.939800000000     0.0468518  
H455     H      0.156160000000     0.471510000000     0.904290000000     0.0441342  
H456     H      0.399470000000     0.526300000000     0.955340000000     0.044763   
H457     H      0.280870000000     0.425590000000     0.935090000000     0.0573592  
H458     H      0.283940000000     0.577290000000     0.918270000000     0.0561022  
H459     H      0.262890000000     0.383900000000     0.901800000000     0.0435445  
H460     H      0.290790000000     0.573720000000     0.971210000000     0.0325383  
H461     H      0.200370000000     0.494540000000     0.936020000000     0.0576479  
H462     H      0.360570000000     0.511560000000     0.919620000000     0.0581176  
H463     H      0.296500000000     0.618110000000     0.952620000000     0.0429085  
H464     H      0.200410000000     0.477810000000     0.883880000000     0.0312361  
H465     H      0.245450000000     0.145020000000     0.456980000000     0.0438421  
H466     H      0.247680000000     0.017650000000     0.895110000000     0.0474731  
H467     H      0.167970000000     0.176230000000     0.894280000000     0.0377197  
H468     H      0.144040000000     0.107150000000     0.906760000000     0.0517983  
H469     H      0.189810000000     0.064440000000     0.893710000000     0.0637856  
H470     H      0.292020000000     0.113810000000     0.437640000000     0.0443554  
H471     H      0.216560000000     0.216900000000     0.454650000000     0.0438009  
H472     H      0.247670000000     0.038390000000     0.866170000000     0.0522713  
H473     H      0.133570000000     0.124380000000     0.935250000000     0.0534428  
H474     H      0.294490000000     0.136630000000     0.409330000000     0.0592636  
H475     H      0.115130000000     0.179380000000     0.908080000000     0.0448966  
H476     H      0.305120000000     0.045410000000     0.423940000000     0.0282667  
H477     H      0.188480000000     0.146810000000     0.461840000000     0.0516105  
H478     H      0.219960000000     0.104130000000     0.878390000000     0.0597298  
H479     H      0.347310000000     0.079910000000     0.413730000000     0.0419669  
H480     H      0.239700000000     0.201510000000     0.427320000000     0.0373042  
H481     H      0.975620000000     0.375540000000     0.020500000000     0.0471877  
H482     H      0.000550000000     0.222740000000     0.053360000000     0.0326535  
H483     H      0.104420000000     0.379660000000     0.023950000000     0.0269878  
H484     H      0.088460000000     0.324770000000     0.048580000000     0.0513648  
H485     H      0.053500000000     0.274430000000     0.065720000000     0.0534238  
H486     H      0.932690000000     0.332750000000     0.037530000000     0.0524312  
H487     H      0.012850000000     0.386490000000     0.981290000000     0.0438499  
H488     H      0.006900000000     0.222060000000     0.084310000000     0.0461502  
H489     H      0.077400000000     0.288480000000     0.025360000000     0.0563889  
H490     H      0.941580000000     0.333520000000     0.068040000000     0.0593427  
H491     H      0.130970000000     0.335660000000     0.010940000000     0.0429698  
H492     H      0.928670000000     0.257530000000     0.036390000000     0.0324441  
H493     H      0.983180000000     0.330200000000     0.002320000000     0.0547983  
H494     H      0.015250000000     0.297720000000     0.085370000000     0.0675127  
H495     H      0.889420000000     0.278740000000     0.056540000000     0.0525406  
H496     H      0.037000000000     0.409340000000     0.006520000000     0.0280599  
H497     H      0.929050000000     0.368270000000     0.362610000000     0.0456012  
H498     H      0.013130000000     0.503810000000     0.326870000000     0.0329182  
H499     H      0.019470000000     0.301580000000     0.336930000000     0.0303714  
H500     H      0.038180000000     0.365560000000     0.319440000000     0.0435559  
H501     H      0.039660000000     0.436610000000     0.316760000000     0.0468051  
H502     H      0.921030000000     0.437000000000     0.357480000000     0.0415172  
H503     H      0.969180000000     0.323450000000     0.393820000000     0.0411015  
H504     H      0.013560000000     0.498940000000     0.295820000000     0.043333   
H505     H      0.061680000000     0.386450000000     0.345750000000     0.0600499  
H506     H      0.906880000000     0.423370000000     0.328200000000     0.05618    
H507     H      0.075350000000     0.312800000000     0.345250000000     0.042513   
H508     H      0.942190000000     0.504850000000     0.348320000000     0.0321462  
H509     H      0.969350000000     0.392810000000     0.381000000000     0.0540684  
H510     H      0.993450000000     0.425580000000     0.298160000000     0.0553591  
H511     H      0.891150000000     0.496070000000     0.333350000000     0.0399847  
H512     H      0.960660000000     0.303200000000     0.365170000000     0.0361485  
H513     H      0.318150000000     0.859810000000     0.730780000000     0.0544569  
H514     H      0.364110000000     0.021400000000     0.739470000000     0.0318136  
H515     H      0.196280000000     0.896310000000     0.732070000000     0.0289569  
H516     H      0.229690000000     0.962880000000     0.733870000000     0.0452254  
H517     H      0.288950000000     0.005560000000     0.734780000000     0.0449295  
H518     H      0.372700000000     0.900820000000     0.740260000000     0.0502733  
H519     H      0.271920000000     0.827730000000     0.698350000000     0.0560063  
H520     H      0.334590000000     0.043840000000     0.763410000000     0.0438598  
H521     H      0.250840000000     0.959880000000     0.704620000000     0.0572696  
H522     H      0.344940000000     0.903990000000     0.767830000000     0.0509769  
H523     H      0.178680000000     0.926700000000     0.707620000000     0.0430504  
H524     H      0.413240000000     0.961190000000     0.745530000000     0.0399792  
H525     H      0.320380000000     0.885360000000     0.703060000000     0.0565077  
H526     H      0.282270000000     0.987330000000     0.764080000000     0.0506796  
H527     H      0.415340000000     0.935690000000     0.773100000000     0.0505743  
H528     H      0.246470000000     0.835750000000     0.725940000000     0.0411674  
H529     H      0.208870000000     0.932740000000     0.489650000000     0.0477897  
H530     H      0.351390000000     0.015120000000     0.455230000000     0.0308682  
H531     H      0.141360000000     0.027550000000     0.468810000000     0.028456   
H532     H      0.213040000000     0.054050000000     0.467400000000     0.0444706  
H533     H      0.285880000000     0.054480000000     0.464080000000     0.0429264  
H534     H      0.282530000000     0.925490000000     0.487790000000     0.0463313  
H535     H      0.147020000000     0.914650000000     0.460370000000     0.0435785  
H536     H      0.364320000000     0.057540000000     0.474320000000     0.0421823  
H537     H      0.226540000000     0.027360000000     0.440690000000     0.0570226  
H538     H      0.289280000000     0.961920000000     0.511060000000     0.0580653  
H539     H      0.149640000000     0.041620000000     0.438970000000     0.0359496  
H540     H      0.351080000000     0.942300000000     0.470220000000     0.0280777  
H541     H      0.224190000000     0.924510000000     0.459730000000     0.0580672  
H542     H      0.293390000000     0.049370000000     0.494710000000     0.0569648  
H543     H      0.360140000000     0.932540000000     0.500540000000     0.0362448  
H544     H      0.138340000000     0.956330000000     0.480630000000     0.03146    
H545     H      0.573090000000     0.932150000000     0.644190000000     0.0466171  
H546     H      0.413920000000     0.881440000000     0.607630000000     0.0262536  
H547     H      0.500570000000     0.001070000000     0.688120000000     0.0311235  
H548     H      0.443820000000     0.962900000000     0.669870000000     0.0455668  
H549     H      0.415960000000     0.918430000000     0.642540000000     0.0454722  
H550     H      0.542170000000     0.895150000000     0.616260000000     0.0563848  
H551     H      0.603270000000     0.937940000000     0.684210000000     0.0434973  
H552     H      0.385830000000     0.929340000000     0.601520000000     0.042662   
H553     H      0.460650000000     0.914430000000     0.682530000000     0.051227   
H554     H      0.532450000000     0.947900000000     0.607300000000     0.0642864  
H555     H      0.474410000000     0.969430000000     0.709850000000     0.039373   
H556     H      0.486020000000     0.867790000000     0.592820000000     0.0382519  
H557     H      0.555050000000     0.891280000000     0.663290000000     0.0553145  
H558     H      0.429400000000     0.967140000000     0.628710000000     0.061293   
H559     H      0.514640000000     0.904600000000     0.574880000000     0.0592216  
H560     H      0.574860000000     0.982910000000     0.673420000000     0.0310489  
H561     H      0.527850000000     0.982680000000     0.459220000000     0.0499365  
H562     H      0.468790000000     0.880520000000     0.886370000000     0.0284431  
H563     H      0.435960000000     0.920210000000     0.496980000000     0.0425753  
H564     H      0.427730000000     0.891410000000     0.460490000000     0.0470044  
H565     H      0.437570000000     0.879390000000     0.423080000000     0.0477232  
H566     H      0.545070000000     0.964140000000     0.422380000000     0.0477097  
H567     H      0.547690000000     0.965890000000     0.500210000000     0.051697   
H568     H      0.414960000000     0.903040000000     0.382810000000     0.0330039  
H569     H      0.478520000000     0.862380000000     0.461610000000     0.0625205  
H570     H      0.495690000000     0.994570000000     0.418260000000     0.0600868  
H571     H      0.452570000000     0.867230000000     0.500560000000     0.0404079  
H572     H      0.534980000000     0.925740000000     0.387660000000     0.0347075  
H573     H      0.556370000000     0.933770000000     0.462460000000     0.0589291  
H574     H      0.413560000000     0.930420000000     0.420850000000     0.0553731  
H575     H      0.530270000000     0.980110000000     0.380950000000     0.0452902  
H576     H      0.490300000000     0.976380000000     0.495010000000     0.0512739  
H577     H      0.328700000000     0.875390000000     0.835870000000     0.0460727  
H578     H      0.199120000000     0.792110000000     0.787060000000     0.0312429  
H579     H      0.290620000000     0.976390000000     0.806380000000     0.0438355  
H580     H      0.257370000000     0.924820000000     0.783240000000     0.0452765  
H581     H      0.216500000000     0.862310000000     0.777600000000     0.046219   
H582     H      0.295640000000     0.809750000000     0.832090000000     0.0454739  
H583     H      0.305730000000     0.934960000000     0.364310000000     0.0495809  
H584     H      0.216870000000     0.793820000000     0.757330000000     0.0404372  
H585     H      0.212450000000     0.917340000000     0.803280000000     0.0608763  
H586     H      0.328150000000     0.811730000000     0.806010000000     0.0545512  
H587     H      0.232660000000     0.987530000000     0.808770000000     0.044546   
H588     H      0.245320000000     0.761030000000     0.816740000000     0.0284523  
H589     H      0.275620000000     0.872630000000     0.849790000000     0.061209   
H590     H      0.269690000000     0.849140000000     0.765890000000     0.0531659  
H591     H      0.299750000000     0.742270000000     0.810070000000     0.0383254  
H592     H      0.330900000000     0.948070000000     0.837020000000     0.0516253  
H593     H      0.462270000000     0.847210000000     0.667460000000     0.0470914  
H594     H      0.476060000000     0.726740000000     0.597270000000     0.03079    
H595     H      0.331020000000     0.846570000000     0.653410000000     0.0377096  
H596     H      0.363040000000     0.808780000000     0.623690000000     0.0463815  
H597     H      0.410700000000     0.761830000000     0.605380000000     0.0442133  
H598     H      0.510350000000     0.794530000000     0.653220000000     0.0484019  
H599     H      0.409080000000     0.847950000000     0.701570000000     0.0387089  
H600     H      0.466580000000     0.759980000000     0.572750000000     0.0391476  
H601     H      0.369260000000     0.762390000000     0.640880000000     0.0582033  
H602     H      0.509620000000     0.835980000000     0.632430000000     0.0524097  
H603     H      0.309120000000     0.795580000000     0.658570000000     0.0559349  
H604     H      0.532890000000     0.744220000000     0.626030000000     0.0326014  
H605     H      0.449750000000     0.797060000000     0.679670000000     0.0637759  
H606     H      0.430660000000     0.811240000000     0.595410000000     0.0506947  
H607     H      0.567870000000     0.788750000000     0.621960000000     0.0422023  
H608     H      0.390520000000     0.873810000000     0.675700000000     0.023354   
H609     H      0.350850000000     0.843530000000     0.552010000000     0.0483888  
H610     H      0.454350000000     0.705750000000     0.546460000000     0.0345194  
H611     H      0.253950000000     0.756090000000     0.565270000000     0.0358218  
H612     H      0.318280000000     0.717340000000     0.574950000000     0.0458047  
H613     H      0.385600000000     0.701060000000     0.564660000000     0.0443691  
H614     H      0.412960000000     0.818380000000     0.539630000000     0.0539814  
H615     H      0.287340000000     0.869560000000     0.574390000000     0.0446537  
H616     H      0.423720000000     0.667550000000     0.530740000000     0.0441709  
H617     H      0.334340000000     0.752350000000     0.597510000000     0.0497303  
H618     H      0.374620000000     0.800080000000     0.518030000000     0.0535594  
H619     H      0.254590000000     0.745300000000     0.595800000000     0.0455491  
H620     H      0.469210000000     0.775380000000     0.528280000000     0.059008   
H621     H      0.356360000000     0.834460000000     0.582450000000     0.0501101  
H622     H      0.354980000000     0.701370000000     0.537760000000     0.0563287  
H623     H      0.444100000000     0.788620000000     0.501260000000     0.0510002  
H624     H      0.273320000000     0.833060000000     0.552080000000     0.03456    
H625     H      0.392070000000     0.726800000000     0.830070000000     0.0517478  
H626     H      0.395640000000     0.891780000000     0.807410000000     0.0364114  
H627     H      0.447690000000     0.802960000000     0.384380000000     0.032597   
H628     H      0.377710000000     0.838990000000     0.373320000000     0.0440677  
H629     H      0.403430000000     0.873560000000     0.346210000000     0.0506527  
H630     H      0.396590000000     0.767930000000     0.801610000000     0.0613988  
H631     H      0.416990000000     0.689010000000     0.364830000000     0.0448875  
H632     H      0.448110000000     0.911100000000     0.817150000000     0.06286    
H633     H      0.347670000000     0.793080000000     0.377460000000     0.0538783  
H634     H      0.453630000000     0.774770000000     0.809870000000     0.0571843  
H635     H      0.406370000000     0.798920000000     0.406570000000     0.0410392  
H636     H      0.392410000000     0.830450000000     0.781070000000     0.0341018  
H637     H      0.353910000000     0.731690000000     0.853160000000     0.0541891  
H638     H      0.458270000000     0.853310000000     0.343060000000     0.0591635  
H639     H      0.442260000000     0.805050000000     0.772040000000     0.0529435  
H640     H      0.455240000000     0.728780000000     0.356510000000     0.0348045  
H641     H      0.545060000000     0.690640000000     0.792910000000     0.0449407  
H642     H      0.546430000000     0.543680000000     0.756400000000     0.0346603  
H643     H      0.537890000000     0.712070000000     0.724260000000     0.0319628  
H644     H      0.571660000000     0.648430000000     0.726960000000     0.0423406  
H645     H      0.601050000000     0.592050000000     0.738970000000     0.0440115  
H646     H      0.564240000000     0.633200000000     0.809660000000     0.045716   
H647     H      0.476420000000     0.727700000000     0.779210000000     0.039753   
H648     H      0.599640000000     0.520000000000     0.752820000000     0.044902   
H649     H      0.521540000000     0.620260000000     0.733030000000     0.0548192  
H650     H      0.616030000000     0.610110000000     0.803310000000     0.0522475  
H651     H      0.498520000000     0.677910000000     0.711180000000     0.0419772  
H652     H      0.524770000000     0.568520000000     0.799900000000     0.0365202  
H653     H      0.497500000000     0.658070000000     0.787750000000     0.0559946  
H654     H      0.636250000000     0.585950000000     0.763190000000     0.0554007  
H655     H      0.565520000000     0.560030000000     0.821990000000     0.045694   
H656     H      0.526910000000     0.738240000000     0.763980000000     0.0396913  
H657     H      0.453620000000     0.298430000000     0.837250000000     0.04655    
H658     H      0.535570000000     0.155260000000     0.809620000000     0.0287137  
H659     H      0.547110000000     0.309780000000     0.882540000000     0.0323127  
H660     H      0.566160000000     0.244470000000     0.867070000000     0.0474635  
H661     H      0.562750000000     0.190970000000     0.842490000000     0.0435931  
H662     H      0.444200000000     0.244380000000     0.814520000000     0.0465368  
H663     H      0.490610000000     0.369850000000     0.836650000000     0.0431564  
H664     H      0.534070000000     0.120330000000     0.833970000000     0.039582   
H665     H      0.586020000000     0.265850000000     0.840050000000     0.0585685  
H666     H      0.430620000000     0.216500000000     0.840630000000     0.0576865  
H667     H      0.601740000000     0.314650000000     0.870680000000     0.0462648  
H668     H      0.465770000000     0.185060000000     0.794020000000     0.0316702  
H669     H      0.495740000000     0.306530000000     0.815590000000     0.0563068  
H670     H      0.516840000000     0.176490000000     0.860600000000     0.0571248  
H671     H      0.414020000000     0.173300000000     0.807640000000     0.0441096  
H672     H      0.484510000000     0.343540000000     0.863920000000     0.0318002  
H673     H      0.673380000000     0.631900000000     0.473250000000     0.0441522  
H674     H      0.625520000000     0.473010000000     0.475040000000     0.0363167  
H675     H      0.622550000000     0.620910000000     0.410880000000     0.0309262  
H676     H      0.640800000000     0.553600000000     0.420410000000     0.0469407  
H677     H      0.659000000000     0.498040000000     0.439090000000     0.0464191  
H678     H      0.689840000000     0.582320000000     0.497570000000     0.0442246  
H679     H      0.605780000000     0.678060000000     0.465940000000     0.043801   
H680     H      0.668880000000     0.439070000000     0.465430000000     0.0448518  
H681     H      0.593250000000     0.545650000000     0.438800000000     0.0588668  
H682     H      0.730970000000     0.548500000000     0.486150000000     0.0551361  
H683     H      0.570320000000     0.594820000000     0.410960000000     0.0453723  
H684     H      0.644310000000     0.524230000000     0.510530000000     0.0356424  
H685     H      0.620760000000     0.613700000000     0.484040000000     0.0559076  
H686     H      0.712540000000     0.498540000000     0.451650000000     0.0503382  
H687     H      0.699000000000     0.521100000000     0.522340000000     0.0440663  
H688     H      0.643150000000     0.667980000000     0.442420000000     0.0297014  
H689     H      0.617130000000     0.204180000000     0.497760000000     0.0464708  
H690     H      0.640400000000     0.061230000000     0.548150000000     0.0287213  
H691     H      0.613580000000     0.258120000000     0.562300000000     0.0335082  
H692     H      0.643710000000     0.192490000000     0.571680000000     0.0463322  
H693     H      0.646220000000     0.125400000000     0.566330000000     0.0455228  
H694     H      0.622380000000     0.135880000000     0.495680000000     0.0457399  
H695     H      0.641500000000     0.277080000000     0.499400000000     0.044531   
H696     H      0.596820000000     0.062480000000     0.569290000000     0.0380261  
H697     H      0.692970000000     0.200370000000     0.554900000000     0.0591056  
H698     H      0.568340000000     0.145200000000     0.507810000000     0.0571206  
H699     H      0.669130000000     0.265330000000     0.572280000000     0.0465072  
H700     H      0.624600000000     0.066550000000     0.507040000000     0.0296052  
H701     H      0.674770000000     0.208700000000     0.504480000000     0.0564191  
H702     H      0.587820000000     0.135920000000     0.565710000000     0.0572862  
H703     H      0.569210000000     0.073990000000     0.496800000000     0.0396516  
H704     H      0.597250000000     0.264620000000     0.518930000000     0.0338744  
H705     H      0.011930000000     0.055230000000     0.800140000000     0.0460999  
H706     H      0.827940000000     0.052670000000     0.803720000000     0.0291695  
H707     H      0.979760000000     0.031290000000     0.370150000000     0.0340478  
H708     H      0.923560000000     0.991170000000     0.349940000000     0.0463214  
H709     H      0.870080000000     0.015640000000     0.329470000000     0.0457949  
H710     H      0.951650000000     0.070420000000     0.781750000000     0.0461331  
H711     H      0.073550000000     0.040410000000     0.325900000000     0.0445669  
H712     H      0.818200000000     0.079410000000     0.830500000000     0.0416515  
H713     H      0.963740000000     0.962450000000     0.834180000000     0.0570224  
H714     H      0.954230000000     0.108560000000     0.304720000000     0.0564537  
H715     H      0.988250000000     0.976510000000     0.374070000000     0.0453007  
H716     H      0.877280000000     0.081700000000     0.774220000000     0.0308743  
H717     H      0.016870000000     0.000680000000     0.804650000000     0.0564576  
H718     H      0.886990000000     0.060580000000     0.345970000000     0.0557858  
H719     H      0.900690000000     0.132560000000     0.777750000000     0.0423134  
H720     H      0.031690000000     0.070410000000     0.340300000000     0.0341549  
H721     H      0.671210000000     0.130690000000     0.755160000000     0.04694    
H722     H      0.666400000000     0.011100000000     0.826850000000     0.0325971  
H723     H      0.612780000000     0.204280000000     0.802110000000     0.0279297  
H724     H      0.612030000000     0.139220000000     0.819880000000     0.0436685  
H725     H      0.626950000000     0.073310000000     0.827990000000     0.0483263  
H726     H      0.701310000000     0.066820000000     0.764290000000     0.0471132  
H727     H      0.701320000000     0.204060000000     0.758910000000     0.03511    
H728     H      0.609460000000     0.996420000000     0.824440000000     0.0488509  
H729     H      0.669360000000     0.140780000000     0.827680000000     0.0596636  
H730     H      0.645280000000     0.050760000000     0.759150000000     0.0588891  
H731     H      0.647180000000     0.211400000000     0.827130000000     0.0392973  
H732     H      0.714440000000     0.012420000000     0.791780000000     0.0313808  
H733     H      0.718530000000     0.136610000000     0.773890000000     0.0602305  
H734     H      0.590420000000     0.059480000000     0.804760000000     0.0619455  
H735     H      0.694730000000     0.990960000000     0.764950000000     0.0440977  
H736     H      0.643180000000     0.197420000000     0.764100000000     0.0281801  
H737     H      0.896600000000     0.255120000000     0.467910000000     0.0484221  
H738     H      0.783680000000     0.321410000000     0.409210000000     0.0369095  
H739     H      0.923370000000     0.363530000000     0.481680000000     0.0291234  
H740     H      0.896380000000     0.372420000000     0.443840000000     0.0478355  
H741     H      0.853140000000     0.359770000000     0.413030000000     0.0436586  
H742     H      0.866430000000     0.229140000000     0.436630000000     0.0475076  
H743     H      0.862460000000     0.276940000000     0.508550000000     0.0409436  
H744     H      0.805920000000     0.335080000000     0.881330000000     0.0439432  
H745     H      0.839280000000     0.370690000000     0.452990000000     0.0579631  
H746     H      0.889570000000     0.244700000000     0.409660000000     0.0600698  
H747     H      0.880050000000     0.401260000000     0.484260000000     0.040204   
H748     H      0.791410000000     0.244850000000     0.423220000000     0.0342461  
H749     H      0.838080000000     0.263480000000     0.471180000000     0.0559188  
H750     H      0.881910000000     0.323090000000     0.395470000000     0.0527612  
H751     H      0.818370000000     0.208100000000     0.404510000000     0.0442791  
H752     H      0.915030000000     0.295410000000     0.498830000000     0.0258175  
H753     H      0.011620000000     0.981930000000     0.589380000000     0.0465764  
H754     H      0.989680000000     0.067690000000     0.672400000000     0.0313889  
H755     H      0.134760000000     0.025320000000     0.590350000000     0.0296303  
H756     H      0.103520000000     0.059020000000     0.622210000000     0.0453382  
H757     H      0.055040000000     0.073470000000     0.650800000000     0.0470006  
H758     H      0.962290000000     0.992220000000     0.618490000000     0.0471719  
H759     H      0.071470000000     0.929710000000     0.579660000000     0.0423665  
H760     H      0.993090000000     0.120930000000     0.663180000000     0.0448296  
H761     H      0.103610000000     0.013250000000     0.640260000000     0.0582511  
H762     H      0.959040000000     0.041400000000     0.603640000000     0.0582933  
H763     H      0.165250000000     0.006310000000     0.614840000000     0.0417585  
H764     H      0.937600000000     0.019620000000     0.654190000000     0.0310475  
H765     H      0.030470000000     0.950550000000     0.613350000000     0.0589604  
H766     H      0.029710000000     0.102280000000     0.627600000000     0.0593994  
H767     H      0.900290000000     0.037320000000     0.632100000000     0.0416899  
H768     H      0.080810000000     0.982630000000     0.570970000000     0.0305144  
H769     H      0.742030000000     0.061010000000     0.549720000000     0.0451976  
H770     H      0.690220000000     0.939070000000     0.612230000000     0.0312886  
H771     H      0.687370000000     0.140460000000     0.598980000000     0.0257902  
H772     H      0.664700000000     0.074660000000     0.608210000000     0.0443921  
H773     H      0.660220000000     0.006520000000     0.613460000000     0.0444368  
H774     H      0.750780000000     0.992360000000     0.555640000000     0.046406   
H775     H      0.783140000000     0.126050000000     0.559150000000     0.043016   
H776     H      0.632290000000     0.934640000000     0.606290000000     0.0377959  
H777     H      0.716330000000     0.059940000000     0.621300000000     0.0546822  
H778     H      0.694310000000     0.989150000000     0.546180000000     0.0575989  
H779     H      0.717430000000     0.131830000000     0.625080000000     0.0423247  
H780     H      0.745140000000     0.932590000000     0.579860000000     0.0321377  
H781     H      0.782200000000     0.055110000000     0.572660000000     0.0579671  
H782     H      0.630840000000     0.000850000000     0.586660000000     0.0573759  
H783     H      0.726580000000     0.919910000000     0.551110000000     0.0431445  
H784     H      0.724140000000     0.129750000000     0.560480000000     0.0269832  
H785     H      0.684400000000     0.336350000000     0.703500000000     0.0449708  
H786     H      0.860290000000     0.299260000000     0.702100000000     0.0243406  
H787     H      0.685610000000     0.278960000000     0.764120000000     0.035556   
H788     H      0.760120000000     0.272400000000     0.754160000000     0.0680738  
H789     H      0.816810000000     0.272950000000     0.732070000000     0.0519932  
H790     H      0.739520000000     0.336010000000     0.680000000000     0.0422663  
H791     H      0.644060000000     0.375300000000     0.735000000000     0.0440544  
H792     H      0.864700000000     0.243630000000     0.701290000000     0.0418268  
H793     H      0.771620000000     0.327170000000     0.757330000000     0.0675622  
H794     H      0.734520000000     0.280710000000     0.676720000000     0.0569961  
H795     H      0.717520000000     0.305910000000     0.785560000000     0.0593675  
H796     H      0.816020000000     0.336570000000     0.672140000000     0.0311041  
H797     H      0.716300000000     0.375050000000     0.718620000000     0.0523489  
H798     H      0.788890000000     0.235520000000     0.714100000000     0.0604458  
H799     H      0.788740000000     0.308060000000     0.649630000000     0.044043   
H800     H      0.640650000000     0.319630000000     0.735150000000     0.0317175  
H801     H      0.680170000000     0.708090000000     0.800790000000     0.0452381  
H802     H      0.700780000000     0.574360000000     0.740100000000     0.0322164  
H803     H      0.693520000000     0.765740000000     0.736840000000     0.0341849  
H804     H      0.657140000000     0.701840000000     0.725230000000     0.0444899  
H805     H      0.675760000000     0.637890000000     0.727700000000     0.0424672  
H806     H      0.694900000000     0.642740000000     0.798470000000     0.0443131  
H807     H      0.656360000000     0.781210000000     0.799770000000     0.0428986  
H808     H      0.744320000000     0.592700000000     0.721870000000     0.0432057  
H809     H      0.611440000000     0.711370000000     0.744020000000     0.0545227  
H810     H      0.745670000000     0.665220000000     0.787830000000     0.0558332  
H811     H      0.639150000000     0.775230000000     0.725730000000     0.0433573  
H812     H      0.709010000000     0.577220000000     0.783470000000     0.0366337  
H813     H      0.625000000000     0.713360000000     0.790420000000     0.0515963  
H814     H      0.728960000000     0.663000000000     0.729220000000     0.0543308  
H815     H      0.760130000000     0.594050000000     0.795890000000     0.0463061  
H816     H      0.704560000000     0.770980000000     0.782540000000     0.0345622  
H817     H      0.019570000000     0.686320000000     0.640390000000     0.0456907  
H818     H      0.007760000000     0.667930000000     0.734730000000     0.0340023  
H819     H      0.989920000000     0.802440000000     0.652190000000     0.0312153  
H820     H      0.983190000000     0.776090000000     0.689800000000     0.0458391  
H821     H      0.983770000000     0.730310000000     0.717570000000     0.0460399  
H822     H      0.017080000000     0.637440000000     0.666010000000     0.0456232  
H823     H      0.072520000000     0.737040000000     0.621130000000     0.0443061  
H824     H      0.950680000000     0.675490000000     0.742030000000     0.0428334  
H825     H      0.041890000000     0.769470000000     0.693790000000     0.0572012  
H826     H      0.958350000000     0.643130000000     0.669080000000     0.0553136  
H827     H      0.029260000000     0.829520000000     0.669820000000     0.0424496  
H828     H      0.027620000000     0.612730000000     0.703920000000     0.0344481  
H829     H      0.070100000000     0.697110000000     0.655740000000     0.0562777  
H830     H      0.935120000000     0.707640000000     0.704990000000     0.0550891  
H831     H      0.983960000000     0.583460000000     0.690800000000     0.0443313  
H832     H      0.015260000000     0.750820000000     0.623040000000     0.032633   
H833     H      0.763300000000     0.405660000000     0.683840000000     0.0419533  
H834     H      0.832070000000     0.469850000000     0.603980000000     0.0331463  
H835     H      0.885980000000     0.374650000000     0.698240000000     0.0236117  
H836     H      0.895170000000     0.400590000000     0.661060000000     0.0486307  
H837     H      0.877790000000     0.429290000000     0.628020000000     0.0475257  
H838     H      0.742170000000     0.432550000000     0.650970000000     0.0455718  
H839     H      0.788240000000     0.423340000000     0.724490000000     0.0437074  
H840     H      0.852860000000     0.426710000000     0.587520000000     0.0431298  
H841     H      0.887620000000     0.454220000000     0.669480000000     0.0605142  
H842     H      0.754480000000     0.383040000000     0.637960000000     0.0544571  
H843     H      0.922220000000     0.418560000000     0.701260000000     0.0400744  
H844     H      0.751530000000     0.470240000000     0.616570000000     0.033637   
H845     H      0.783040000000     0.457960000000     0.687660000000     0.0593315  
H846     H      0.850460000000     0.381180000000     0.621110000000     0.0613411  
H847     H      0.717420000000     0.426240000000     0.609940000000     0.0443734  
H848     H      0.810910000000     0.377210000000     0.711630000000     0.0283949  
H849     H      0.814890000000     0.756360000000     0.477810000000     0.0468111  
H850     H      0.658140000000     0.681330000000     0.504440000000     0.0273131  
H851     H      0.864900000000     0.700900000000     0.534680000000     0.0324     
H852     H      0.794060000000     0.671270000000     0.534180000000     0.0465773  
H853     H      0.723790000000     0.666410000000     0.523520000000     0.0443373  
H854     H      0.744160000000     0.748620000000     0.468230000000     0.0460109  
H855     H      0.892500000000     0.731720000000     0.474150000000     0.0441179  
H856     H      0.650600000000     0.700850000000     0.533250000000     0.0429552  
H857     H      0.803860000000     0.641710000000     0.508170000000     0.0566276  
H858     H      0.742610000000     0.782370000000     0.493230000000     0.0578699  
H859     H      0.871570000000     0.646010000000     0.530180000000     0.0441009  
H860     H      0.670480000000     0.728500000000     0.471770000000     0.028869   
H861     H      0.819450000000     0.704120000000     0.466860000000     0.0569848  
H862     H      0.727000000000     0.716440000000     0.537590000000     0.0575699  
H863     H      0.670840000000     0.783800000000     0.476030000000     0.0435665  
H864     H      0.876610000000     0.750300000000     0.502330000000     0.03285    
H865     H      0.146530000000     0.678930000000     0.397660000000     0.0459381  
H866     H      0.108500000000     0.786710000000     0.324310000000     0.0296682  
H867     H      0.011130000000     0.720200000000     0.400330000000     0.0364283  
H868     H      0.021360000000     0.697220000000     0.359920000000     0.0473806  
H869     H      0.056390000000     0.742560000000     0.339450000000     0.0464991  
H870     H      0.174160000000     0.721370000000     0.372400000000     0.0458506  
H871     H      0.103700000000     0.656610000000     0.431650000000     0.0441811  
H872     H      0.070280000000     0.821820000000     0.337750000000     0.042023   
H873     H      0.040260000000     0.647790000000     0.369030000000     0.0564899  
H874     H      0.148620000000     0.757000000000     0.392630000000     0.0580015  
H875     H      0.981590000000     0.672960000000     0.394800000000     0.0453659  
H876     H      0.179130000000     0.770160000000     0.342720000000     0.0277473  
H877     H      0.110580000000     0.637490000000     0.390490000000     0.0548254  
H878     H      0.047580000000     0.772730000000     0.365420000000     0.0562831  
H879     H      0.196430000000     0.796900000000     0.368440000000     0.0394796  
H880     H      0.091250000000     0.709490000000     0.424190000000     0.0372685  
H881     H      0.790710000000     0.475930000000     0.440680000000     0.0477132  
H882     H      0.799180000000     0.507710000000     0.847360000000     0.0385678  
H883     H      0.918380000000     0.438350000000     0.930930000000     0.0291482  
H884     H      0.886920000000     0.439950000000     0.895010000000     0.040052   
H885     H      0.847370000000     0.457930000000     0.864290000000     0.0437301  
H886     H      0.747370000000     0.501410000000     0.413140000000     0.043291   
H887     H      0.847290000000     0.504010000000     0.468450000000     0.0462109  
H888     H      0.791470000000     0.458400000000     0.833310000000     0.0513747  
H889     H      0.891820000000     0.495640000000     0.391810000000     0.0527722  
H890     H      0.737010000000     0.449980000000     0.902260000000     0.0573285  
H891     H      0.948160000000     0.480140000000     0.417850000000     0.0449462  
H892     H      0.741150000000     0.533210000000     0.376160000000     0.0316243  
H893     H      0.813470000000     0.525990000000     0.432900000000     0.0558175  
H894     H      0.804470000000     0.420880000000     0.869420000000     0.0573485  
H895     H      0.693220000000     0.501960000000     0.881540000000     0.0410724  
H896     H      0.856250000000     0.452400000000     0.457530000000     0.0332977  
H897     H      0.287100000000     0.543860000000     0.659250000000     0.0459861  
H898     H      0.291070000000     0.388110000000     0.699750000000     0.0314189  
H899     H      0.230910000000     0.576100000000     0.721670000000     0.0339705  
H900     H      0.260130000000     0.510340000000     0.730970000000     0.0465924  
H901     H      0.274430000000     0.446370000000     0.721620000000     0.0463588  
H902     H      0.302950000000     0.478440000000     0.653100000000     0.0458732  
H903     H      0.299320000000     0.616130000000     0.671480000000     0.0445206  
H904     H      0.234890000000     0.380760000000     0.708660000000     0.0437359  
H905     H      0.316460000000     0.525760000000     0.726520000000     0.056099   
H906     H      0.243360000000     0.478480000000     0.653690000000     0.0562924  
H907     H      0.274140000000     0.582910000000     0.742560000000     0.043686   
H908     H      0.309080000000     0.407240000000     0.659680000000     0.0311547  
H909     H      0.334780000000     0.549210000000     0.677500000000     0.0558528  
H910     H      0.220310000000     0.453450000000     0.709170000000     0.0572401  
H911     H      0.266350000000     0.412940000000     0.638370000000     0.0422039  
H912     H      0.246160000000     0.595530000000     0.679010000000     0.0344339  
H913     H      0.312970000000     0.208490000000     0.565880000000     0.0463887  
H914     H      0.167440000000     0.157620000000     0.616750000000     0.0289953  
H915     H      0.383420000000     0.154670000000     0.617080000000     0.0312921  
H916     H      0.311630000000     0.136820000000     0.628440000000     0.0459224  
H917     H      0.238560000000     0.139610000000     0.628350000000     0.0455547  
H918     H      0.239830000000     0.208870000000     0.566350000000     0.0458921  
H919     H      0.381600000000     0.172390000000     0.553230000000     0.0428609  
H920     H      0.175640000000     0.183360000000     0.644040000000     0.0420403  
H921     H      0.302930000000     0.101750000000     0.604540000000     0.0566674  
H922     H      0.253230000000     0.246160000000     0.588630000000     0.0574035  
H923     H      0.379600000000     0.099050000000     0.615450000000     0.0420529  
H924     H      0.168520000000     0.196770000000     0.580330000000     0.029068   
H925     H      0.304530000000     0.154830000000     0.558110000000     0.0557832  
H926     H      0.253000000000     0.191540000000     0.637340000000     0.0564103  
H927     H      0.175860000000     0.252140000000     0.580330000000     0.0405597  
H928     H      0.383820000000     0.197100000000     0.581130000000     0.0317196  
H929     H      0.037380000000     0.289200000000     0.758900000000     0.0461764  
H930     H      0.887420000000     0.381240000000     0.775280000000     0.0384085  
H931     H      0.977070000000     0.260830000000     0.698610000000     0.0391145  
H932     H      0.932840000000     0.318070000000     0.710120000000     0.0444331  
H933     H      0.903090000000     0.357500000000     0.737970000000     0.0499096  
H934     H      0.000910000000     0.326930000000     0.784750000000     0.0435724  
H935     H      0.088180000000     0.276620000000     0.725760000000     0.0449006  
H936     H      0.843140000000     0.346370000000     0.768380000000     0.0403415  
H937     H      0.977300000000     0.354780000000     0.708250000000     0.0577337  
H938     H      0.971220000000     0.278390000000     0.783100000000     0.0574114  
H939     H      0.982950000000     0.302100000000     0.677850000000     0.0475094  
H940     H      0.943510000000     0.362330000000     0.802560000000     0.0295961  
H941     H      0.049330000000     0.335360000000     0.742560000000     0.0578229  
H942     H      0.888950000000     0.304220000000     0.744420000000     0.0524839  
H943     H      0.943830000000     0.312660000000     0.816690000000     0.0393795  
H944     H      0.039330000000     0.245100000000     0.726200000000     0.0339162  
H945     H      0.082660000000     0.556140000000     0.574240000000     0.045561   
H946     H      0.000820000000     0.408000000000     0.585920000000     0.0297535  
H947     H      0.125560000000     0.516960000000     0.516540000000     0.0317784  
H948     H      0.089700000000     0.454990000000     0.528470000000     0.046626   
H949     H      0.042580000000     0.418020000000     0.551550000000     0.0463349  
H950     H      0.048560000000     0.516820000000     0.600620000000     0.0453179  
H951     H      0.062310000000     0.605740000000     0.540370000000     0.0438263  
H952     H      0.040940000000     0.367110000000     0.583430000000     0.0383855  
H953     H      0.035120000000     0.476470000000     0.523930000000     0.0578539  
H954     H      0.100990000000     0.490740000000     0.601890000000     0.0553822  
H955     H      0.085830000000     0.502880000000     0.494770000000     0.0452158  
H956     H      0.009150000000     0.461720000000     0.616410000000     0.030659   
H957     H      0.027700000000     0.553450000000     0.562550000000     0.0557503  
H958     H      0.094840000000     0.413610000000     0.566290000000     0.0567038  
H959     H      0.058590000000     0.464310000000     0.633430000000     0.0424789  
H960     H      0.114380000000     0.579210000000     0.540180000000     0.0319289  
H961     H      0.211860000000     0.528520000000     0.411870000000     0.0464389  
H962     H      0.350310000000     0.519600000000     0.472370000000     0.0330247  
H963     H      0.262380000000     0.428360000000     0.382930000000     0.0318819  
H964     H      0.315860000000     0.441340000000     0.411290000000     0.0469126  
H965     H      0.347410000000     0.472750000000     0.441050000000     0.0472125  
H966     H      0.243490000000     0.563380000000     0.439800000000     0.0468702  
H967     H      0.156150000000     0.471540000000     0.404290000000     0.0441546  
H968     H      0.399460000000     0.526320000000     0.455340000000     0.0447521  
H969     H      0.280870000000     0.425610000000     0.435080000000     0.0573998  
H970     H      0.283940000000     0.577320000000     0.418270000000     0.0560956  
H971     H      0.262890000000     0.383930000000     0.401800000000     0.0435349  
H972     H      0.290780000000     0.573740000000     0.471210000000     0.0325406  
H973     H      0.200370000000     0.494570000000     0.436020000000     0.0576349  
H974     H      0.360560000000     0.511590000000     0.419620000000     0.0581336  
H975     H      0.296500000000     0.618130000000     0.452620000000     0.0429133  
H976     H      0.200390000000     0.477840000000     0.383890000000     0.0312687  
H977     H      0.245410000000     0.144980000000     0.956990000000     0.0438091  
H978     H      0.247700000000     0.017660000000     0.395110000000     0.0474935  
H979     H      0.168000000000     0.176250000000     0.394280000000     0.0377225  
H980     H      0.144070000000     0.107170000000     0.406770000000     0.0517989  
H981     H      0.189830000000     0.064460000000     0.393720000000     0.0637519  
H982     H      0.291990000000     0.113810000000     0.937640000000     0.0443591  
H983     H      0.216520000000     0.216870000000     0.954660000000     0.043817   
H984     H      0.247690000000     0.038410000000     0.366170000000     0.0522928  
H985     H      0.133600000000     0.124410000000     0.435260000000     0.0534483  
H986     H      0.294460000000     0.136620000000     0.909330000000     0.0592672  
H987     H      0.115160000000     0.179400000000     0.408080000000     0.0449023  
H988     H      0.305100000000     0.045400000000     0.923950000000     0.028248   
H989     H      0.188430000000     0.146780000000     0.961830000000     0.0516199  
H990     H      0.219980000000     0.104150000000     0.378390000000     0.0596772  
H991     H      0.347280000000     0.079900000000     0.913740000000     0.0419467  
H992     H      0.239670000000     0.201480000000     0.927330000000     0.0373186  
H993     H      0.975620000000     0.375550000000     0.520500000000     0.0471475  
H994     H      0.000550000000     0.222740000000     0.553360000000     0.0326516  
H995     H      0.104430000000     0.379660000000     0.523950000000     0.0269759  
H996     H      0.088460000000     0.324770000000     0.548580000000     0.0513608  
H997     H      0.053510000000     0.274420000000     0.565710000000     0.0534206  
H998     H      0.932690000000     0.332770000000     0.537530000000     0.0524239  
H999     H      0.012850000000     0.386510000000     0.481290000000     0.0438569  
H1000    H      0.006900000000     0.222060000000     0.584310000000     0.0461518  
H1001    H      0.077400000000     0.288490000000     0.525360000000     0.0563903  
H1002    H      0.941590000000     0.333530000000     0.568040000000     0.0593404  
H1003    H      0.130980000000     0.335670000000     0.510940000000     0.0429523  
H1004    H      0.928670000000     0.257540000000     0.536390000000     0.0324575  
H1005    H      0.983180000000     0.330210000000     0.502320000000     0.0547705  
H1006    H      0.015260000000     0.297710000000     0.585370000000     0.0675167  
H1007    H      0.889420000000     0.278750000000     0.556540000000     0.0525501  
H1008    H      0.037010000000     0.409350000000     0.506530000000     0.0280912  
H1009    H      0.929050000000     0.368300000000     0.862620000000     0.0456015  
H1010    H      0.013150000000     0.503820000000     0.826870000000     0.0329185  
H1011    H      0.019450000000     0.301590000000     0.836920000000     0.03034    
H1012    H      0.038180000000     0.365570000000     0.819440000000     0.043498   
H1013    H      0.039660000000     0.436620000000     0.816760000000     0.0468358  
H1014    H      0.921060000000     0.437040000000     0.857490000000     0.0415244  
H1015    H      0.969170000000     0.323450000000     0.893820000000     0.0410933  
H1016    H      0.013570000000     0.498950000000     0.795820000000     0.0433255  
H1017    H      0.061680000000     0.386450000000     0.845750000000     0.0600397  
H1018    H      0.906880000000     0.423400000000     0.828220000000     0.056157   
H1019    H      0.075340000000     0.312790000000     0.845250000000     0.0424852  
H1020    H      0.942210000000     0.504880000000     0.848320000000     0.03217    
H1021    H      0.969370000000     0.392820000000     0.881010000000     0.0540936  
H1022    H      0.993460000000     0.425590000000     0.798160000000     0.055365   
H1023    H      0.891160000000     0.496100000000     0.833350000000     0.0400101  
H1024    H      0.960640000000     0.303220000000     0.865170000000     0.0361365  
N1       N      0.373810000000     0.989710000000     0.271110000000    -0.16066    
N2       N      0.225090000000     0.877620000000     0.200350000000    -0.161696   
N3       N      0.364310000000     0.996520000000     0.989680000000    -0.162641   
N4       N      0.151370000000     0.976330000000     0.946430000000    -0.163141   
N5       N      0.451160000000     0.923760000000     0.087450000000    -0.16161    
N6       N      0.539100000000     0.949900000000     0.198870000000    -0.162253   
N7       N      0.469670000000     0.945280000000     0.880930000000    -0.161872   
N8       N      0.504380000000     0.912900000000     0.000850000000    -0.157729   
N9       N      0.263150000000     0.767820000000     0.281500000000    -0.162911   
N10      N      0.261820000000     0.958100000000     0.338270000000    -0.15497    
N11      N      0.518530000000     0.778600000000     0.095780000000    -0.162504   
N12      N      0.360490000000     0.815340000000     0.181610000000    -0.163835   
N13      N      0.432700000000     0.726520000000     0.013720000000    -0.158206   
N14      N      0.266900000000     0.808830000000     0.085920000000    -0.160521   
N15      N      0.450110000000     0.858430000000     0.294180000000    -0.161588   
N16      N      0.419550000000     0.742880000000     0.887150000000    -0.160676   
N17      N      0.580960000000     0.535600000000     0.288000000000    -0.159933   
N18      N      0.482410000000     0.700590000000     0.245270000000    -0.161025   
N19      N      0.471450000000     0.143850000000     0.322270000000    -0.16121    
N20      N      0.549720000000     0.343690000000     0.351180000000    -0.161649   
N21      N      0.683240000000     0.476650000000     0.995520000000    -0.160627   
N22      N      0.582950000000     0.635540000000     0.939800000000    -0.161023   
N23      N      0.577050000000     0.069390000000     0.033730000000    -0.162968   
N24      N      0.658270000000     0.274170000000     0.035690000000    -0.160303   
N25      N      0.860280000000     0.110380000000     0.305900000000    -0.162315   
N26      N      0.034300000000     0.007790000000     0.851390000000    -0.160751   
N27      N      0.648480000000     0.991180000000     0.293360000000    -0.160077   
N28      N      0.681010000000     0.206920000000     0.294530000000    -0.164088   
N29      N      0.810920000000     0.270300000000     0.890960000000    -0.160414   
N30      N      0.864490000000     0.340060000000     0.996470000000    -0.164324   
N31      N      0.944900000000     0.083150000000     0.145760000000    -0.161309   
N32      N      0.118850000000     0.963690000000     0.099790000000    -0.161438   
N33      N      0.676040000000     0.925400000000     0.077250000000    -0.161936   
N34      N      0.754820000000     0.129040000000     0.093370000000    -0.162204   
N35      N      0.826960000000     0.272190000000     0.173970000000    -0.162332   
N36      N      0.680500000000     0.343890000000     0.261810000000    -0.160103   
N37      N      0.756990000000     0.593480000000     0.258580000000    -0.159272   
N38      N      0.647340000000     0.782520000000     0.262710000000    -0.161421   
N39      N      0.964720000000     0.626890000000     0.217440000000    -0.160811   
N40      N      0.055830000000     0.784520000000     0.145910000000    -0.161006   
N41      N      0.784000000000     0.424220000000     0.096880000000    -0.160435   
N42      N      0.855740000000     0.427210000000     0.213290000000    -0.163909   
N43      N      0.660640000000     0.746640000000     0.006560000000    -0.162233   
N44      N      0.883700000000     0.685080000000     0.000540000000    -0.160973   
N45      N      0.132050000000     0.812920000000     0.855330000000    -0.162518   
N46      N      0.039780000000     0.667320000000     0.916150000000    -0.160226   
N47      N      0.739310000000     0.478190000000     0.356240000000    -0.16039    
N48      N      0.899040000000     0.497190000000     0.943100000000    -0.161551   
N49      N      0.245050000000     0.396730000000     0.172810000000    -0.161658   
N50      N      0.288570000000     0.602920000000     0.207690000000    -0.160834   
N51      N      0.176800000000     0.222390000000     0.113710000000    -0.162348   
N52      N      0.381020000000     0.131630000000     0.082860000000    -0.161879   
N53      N      0.891280000000     0.323310000000     0.292440000000    -0.162382   
N54      N      0.038570000000     0.291500000000     0.200340000000    -0.16013    
N55      N      0.054130000000     0.413400000000     0.109360000000    -0.162058   
N56      N      0.068480000000     0.554820000000     0.016400000000    -0.161565   
N57      N      0.351040000000     0.575150000000     0.952940000000    -0.161288   
N58      N      0.207030000000     0.424830000000     0.905080000000    -0.161904   
N59      N      0.300370000000     0.058510000000     0.388330000000    -0.161873   
N60      N      0.169760000000     0.204700000000     0.927400000000    -0.160213   
N61      N      0.945740000000     0.247480000000     0.071400000000    -0.160969   
N62      N      0.072300000000     0.357800000000     0.993940000000    -0.162002   
N63      N      0.949660000000     0.497220000000     0.312190000000    -0.161763   
N64      N      0.026290000000     0.321390000000     0.371740000000    -0.160455   
N65      N      0.373800000000     0.989700000000     0.771110000000    -0.160672   
N66      N      0.225080000000     0.877600000000     0.700350000000    -0.161795   
N67      N      0.364310000000     0.996510000000     0.489680000000    -0.162618   
N68      N      0.151380000000     0.976360000000     0.446420000000    -0.163202   
N69      N      0.451150000000     0.923770000000     0.587460000000    -0.16154    
N70      N      0.539090000000     0.949900000000     0.698880000000    -0.162295   
N71      N      0.469680000000     0.945280000000     0.380930000000    -0.161809   
N72      N      0.504360000000     0.912920000000     0.500850000000    -0.15769    
N73      N      0.263140000000     0.767800000000     0.781500000000    -0.162863   
N74      N      0.261810000000     0.958090000000     0.838280000000    -0.154999   
N75      N      0.518520000000     0.778610000000     0.595780000000    -0.162473   
N76      N      0.360480000000     0.815340000000     0.681620000000    -0.163837   
N77      N      0.432700000000     0.726540000000     0.513730000000    -0.15811    
N78      N      0.266890000000     0.808840000000     0.585920000000    -0.160515   
N79      N      0.450100000000     0.858420000000     0.794180000000    -0.161641   
N80      N      0.419550000000     0.742890000000     0.387140000000    -0.160587   
N81      N      0.580960000000     0.535610000000     0.788000000000    -0.15995    
N82      N      0.482410000000     0.700590000000     0.745270000000    -0.161021   
N83      N      0.471430000000     0.143840000000     0.822280000000    -0.161245   
N84      N      0.549700000000     0.343700000000     0.851170000000    -0.161677   
N85      N      0.683230000000     0.476660000000     0.495530000000    -0.160697   
N86      N      0.582940000000     0.635560000000     0.439800000000    -0.161058   
N87      N      0.577040000000     0.069400000000     0.533740000000    -0.162998   
N88      N      0.658270000000     0.274190000000     0.535690000000    -0.16032    
N89      N      0.860280000000     0.110410000000     0.805890000000    -0.162372   
N90      N      0.034290000000     0.007750000000     0.351370000000    -0.160656   
N91      N      0.648460000000     0.991180000000     0.793360000000    -0.160107   
N92      N      0.680990000000     0.206920000000     0.794520000000    -0.164029   
N93      N      0.810940000000     0.270310000000     0.390960000000    -0.160414   
N94      N      0.864480000000     0.340070000000     0.496480000000    -0.164413   
N95      N      0.944900000000     0.083160000000     0.645760000000    -0.161267   
N96      N      0.118850000000     0.963700000000     0.599800000000    -0.161437   
N97      N      0.676030000000     0.925420000000     0.577250000000    -0.161946   
N98      N      0.754810000000     0.129060000000     0.593370000000    -0.162202   
N99      N      0.826960000000     0.272200000000     0.673970000000    -0.162325   
N100     N      0.680470000000     0.343890000000     0.761790000000    -0.160107   
N101     N      0.756990000000     0.593490000000     0.758580000000    -0.159241   
N102     N      0.647330000000     0.782520000000     0.762710000000    -0.161454   
N103     N      0.964720000000     0.626910000000     0.717440000000    -0.160764   
N104     N      0.055820000000     0.784520000000     0.645900000000    -0.161054   
N105     N      0.783990000000     0.424230000000     0.596880000000    -0.160483   
N106     N      0.855740000000     0.427220000000     0.713290000000    -0.163901   
N107     N      0.660620000000     0.746660000000     0.506560000000    -0.162235   
N108     N      0.883690000000     0.685100000000     0.500550000000    -0.160955   
N109     N      0.132110000000     0.812910000000     0.355340000000    -0.162474   
N110     N      0.039810000000     0.667330000000     0.416170000000    -0.160211   
N111     N      0.739310000000     0.478170000000     0.856230000000    -0.160401   
N112     N      0.899050000000     0.497210000000     0.443110000000    -0.161573   
N113     N      0.245060000000     0.396720000000     0.672810000000    -0.161644   
N114     N      0.288570000000     0.602900000000     0.707700000000    -0.160851   
N115     N      0.176770000000     0.222360000000     0.613740000000    -0.162372   
N116     N      0.381000000000     0.131640000000     0.582850000000    -0.161868   
N117     N      0.891240000000     0.323350000000     0.792440000000    -0.162351   
N118     N      0.038560000000     0.291520000000     0.700360000000    -0.160106   
N119     N      0.054120000000     0.413390000000     0.609370000000    -0.162126   
N120     N      0.068470000000     0.554830000000     0.516420000000    -0.161568   
N121     N      0.351040000000     0.575170000000     0.452940000000    -0.161288   
N122     N      0.207030000000     0.424850000000     0.405080000000    -0.161886   
N123     N      0.300350000000     0.058500000000     0.888330000000    -0.161948   
N124     N      0.169780000000     0.204730000000     0.427400000000    -0.16027    
N125     N      0.945740000000     0.247480000000     0.571400000000    -0.160976   
N126     N      0.072310000000     0.357810000000     0.493940000000    -0.162089   
N127     N      0.949670000000     0.497240000000     0.812200000000    -0.161709   
N128     N      0.026280000000     0.321400000000     0.871740000000    -0.16052    
O1       O      0.172180000000     0.273660000000     0.438130000000    -0.247717   
O2       O      0.123830000000     0.330020000000     0.969040000000    -0.255333   
O3       O      0.043920000000     0.324310000000     0.410570000000    -0.247614   
O4       O      0.191760000000     0.356700000000     0.914180000000    -0.253806   
O5       O      0.138980000000     0.400930000000     0.916730000000    -0.257534   
O6       O      0.097170000000     0.323810000000     0.885720000000    -0.253588   
O7       O      0.117860000000     0.253520000000     0.917040000000    -0.254486   
O8       O      0.064880000000     0.355700000000     0.954230000000    -0.249802   
O9       O      0.156700000000     0.291270000000     0.115090000000    -0.253555   
O10      O      0.109670000000     0.304060000000     0.188080000000    -0.246642   
O11      O      0.086780000000     0.350110000000     0.116180000000    -0.252869   
O12      O      0.199520000000     0.372040000000     0.144030000000    -0.25754    
O13      O      0.181990000000     0.358660000000     0.179310000000    -0.251635   
O14      O      0.095770000000     0.398210000000     0.141730000000    -0.254246   
O15      O      0.154470000000     0.256520000000     0.146800000000    -0.256571   
O16      O      0.056940000000     0.315840000000     0.164090000000    -0.254207   
O17      O      0.018240000000     0.604180000000     0.004550000000    -0.251375   
O18      O      0.977400000000     0.637080000000     0.931580000000    -0.250015   
O19      O      0.921950000000     0.623250000000     0.999780000000    -0.248495   
O20      O      0.908690000000     0.552680000000     0.967720000000    -0.255857   
O21      O      0.959420000000     0.540550000000     0.942610000000    -0.252283   
O22      O      0.931720000000     0.665940000000     0.971510000000    -0.25276    
O23      O      0.026930000000     0.549940000000     0.983250000000    -0.254587   
O24      O      0.037660000000     0.632670000000     0.951060000000    -0.254854   
O25      O      0.822930000000     0.569990000000     0.273530000000    -0.246617   
O26      O      0.902720000000     0.478520000000     0.225830000000    -0.251665   
O27      O      0.886690000000     0.515980000000     0.292480000000    -0.251279   
O28      O      0.917600000000     0.607130000000     0.246900000000    -0.256095   
O29      O      0.930030000000     0.563420000000     0.219490000000    -0.250929   
O30      O      0.948220000000     0.517990000000     0.274100000000    -0.257778   
O31      O      0.814430000000     0.568300000000     0.236450000000    -0.253253   
O32      O      0.836140000000     0.479340000000     0.238520000000    -0.253786   
O33      O      0.792770000000     0.157570000000     0.124050000000    -0.253963   
O34      O      0.864530000000     0.213380000000     0.162550000000    -0.254122   
O35      O      0.879530000000     0.232420000000     0.089100000000    -0.248042   
O36      O      0.884440000000     0.111190000000     0.127460000000    -0.25543    
O37      O      0.930230000000     0.153270000000     0.143610000000    -0.245805   
O38      O      0.938060000000     0.204730000000     0.103130000000    -0.254001   
O39      O      0.825960000000     0.153530000000     0.091070000000    -0.25138    
O40      O      0.829860000000     0.248030000000     0.136500000000    -0.253397   
O41      O      0.817740000000     0.154880000000     0.827740000000    -0.254243   
O42      O      0.824920000000     0.288580000000     0.294710000000    -0.257793   
O43      O      0.816130000000     0.219420000000     0.863030000000    -0.251042   
O44      O      0.754870000000     0.220480000000     0.289960000000    -0.266365   
O45      O      0.727500000000     0.225780000000     0.324220000000    -0.254519   
O46      O      0.800160000000     0.281590000000     0.352010000000    -0.251457   
O47      O      0.858120000000     0.181240000000     0.300870000000    -0.25687    
O48      O      0.877870000000     0.268590000000     0.317040000000    -0.256372   
O49      O      0.811740000000     0.388260000000     0.006280000000    -0.257392   
O50      O      0.707880000000     0.320170000000     0.051760000000    -0.248869   
O51      O      0.707100000000     0.408790000000     0.998070000000    -0.251495   
O52      O      0.799980000000     0.399210000000     0.060450000000    -0.253981   
O53      O      0.731750000000     0.401120000000     0.070880000000    -0.247025   
O54      O      0.719490000000     0.448950000000     0.027020000000    -0.254278   
O55      O      0.805500000000     0.326800000000     0.020540000000    -0.255238   
O56      O      0.693520000000     0.326180000000     0.015470000000    -0.251834   
O57      O      0.640200000000     0.399880000000     0.274950000000    -0.244784   
O58      O      0.618520000000     0.369790000000     0.343090000000    -0.253031   
O59      O      0.618230000000     0.473650000000     0.284050000000    -0.245975   
O60      O      0.714930000000     0.443640000000     0.323660000000    -0.248207   
O61      O      0.666940000000     0.461230000000     0.349300000000    -0.253426   
O62      O      0.596020000000     0.490900000000     0.318160000000    -0.249975   
O63      O      0.681590000000     0.367870000000     0.299420000000    -0.243315   
O64      O      0.563300000000     0.396850000000     0.325380000000    -0.256266   
O65      O      0.527370000000     0.673610000000     0.956930000000    -0.254415   
O66      O      0.434510000000     0.681030000000     0.905590000000    -0.254735   
O67      O      0.444720000000     0.730370000000     0.974250000000    -0.2448     
O68      O      0.371460000000     0.643590000000     0.948320000000    -0.256163   
O69      O      0.422980000000     0.597860000000     0.951190000000    -0.250326   
O70      O      0.435020000000     0.669890000000     0.989370000000    -0.253595   
O71      O      0.509410000000     0.630100000000     0.930410000000    -0.2501     
O72      O      0.429740000000     0.735890000000     0.926600000000    -0.250647   
O73      O      0.411340000000     0.718050000000     0.255410000000    -0.256522   
O74      O      0.326610000000     0.755410000000     0.194210000000    -0.247267   
O75      O      0.322600000000     0.728410000000     0.269980000000    -0.254333   
O76      O      0.312310000000     0.648020000000     0.236090000000    -0.257267   
O77      O      0.323260000000     0.665260000000     0.200580000000    -0.250522   
O78      O      0.281870000000     0.755630000000     0.243460000000    -0.261119   
O79      O      0.422340000000     0.693400000000     0.221230000000    -0.257901   
O80      O      0.376400000000     0.782770000000     0.215980000000    -0.262609   
O81      O      0.610170000000     0.890370000000     0.074080000000    -0.255306   
O82      O      0.521430000000     0.853580000000     0.021300000000    -0.255917   
O83      O      0.578610000000     0.815650000000     0.082930000000    -0.251871   
O84      O      0.623980000000     0.771610000000     0.038550000000    -0.258145   
O85      O      0.630680000000     0.812250000000     0.009300000000    -0.255354   
O86      O      0.526850000000     0.802520000000     0.058450000000    -0.256862   
O87      O      0.659890000000     0.878940000000     0.048140000000    -0.254681   
O88      O      0.568320000000     0.903510000000     0.021570000000    -0.254384   
O89      O      0.510220000000     0.901810000000     0.291050000000    -0.242897   
O90      O      0.604810000000     0.832730000000     0.245220000000    -0.252723   
O91      O      0.633130000000     0.943440000000     0.264920000000    -0.255619   
O92      O      0.522460000000     0.931950000000     0.236540000000    -0.258347   
O93      O      0.585430000000     0.913360000000     0.222890000000    -0.249285   
O94      O      0.591160000000     0.944070000000     0.294950000000    -0.244546   
O95      O      0.506610000000     0.849350000000     0.267940000000    -0.256244   
O96      O      0.616800000000     0.838680000000     0.281780000000    -0.257612   
O97      O      0.507560000000     0.050980000000     0.021320000000    -0.261591   
O98      O      0.415070000000     0.982010000000     0.074310000000    -0.247169   
O99      O      0.404820000000     0.044740000000     0.009950000000    -0.253208   
O100     O      0.411250000000     0.102430000000     0.050070000000    -0.255854   
O101     O      0.411630000000     0.066190000000     0.081280000000    -0.252829   
O102     O      0.403110000000     0.982270000000     0.022930000000    -0.260812   
O103     O      0.519980000000     0.051380000000     0.057990000000    -0.258248   
O104     O      0.479220000000     0.968130000000     0.059870000000    -0.248616   
O105     O      0.466610000000     0.005700000000     0.859630000000    -0.246147   
O106     O      0.407820000000     0.105560000000     0.325890000000    -0.25244    
O107     O      0.324160000000     0.033910000000     0.852910000000    -0.256102   
O108     O      0.363220000000     0.033580000000     0.302030000000    -0.255288   
O109     O      0.409770000000     0.983870000000     0.306200000000    -0.258064   
O110     O      0.372020000000     0.062050000000     0.375400000000    -0.259601   
O111     O      0.409180000000     0.966260000000     0.359760000000    -0.266144   
O112     O      0.468780000000     0.076680000000     0.335990000000    -0.247264   
O113     O      0.187150000000     0.966350000000     0.343220000000    -0.251961   
O114     O      0.166700000000     0.866060000000     0.874690000000    -0.256187   
O115     O      0.108190000000     0.991530000000     0.351590000000    -0.248301   
O116     O      0.151570000000     0.990000000000     0.907370000000    -0.268541   
O117     O      0.142460000000     0.926590000000     0.918130000000    -0.255948   
O118     O      0.065340000000     0.957540000000     0.874700000000    -0.251511   
O119     O      0.224610000000     0.942200000000     0.871870000000    -0.258839   
O120     O      0.105140000000     0.879710000000     0.858000000000    -0.255279   
O121     O      0.179700000000     0.894220000000     0.169900000000    -0.252652   
O122     O      0.121710000000     0.893150000000     0.106090000000    -0.2564     
O123     O      0.101390000000     0.840210000000     0.152830000000    -0.255712   
O124     O      0.214140000000     0.800850000000     0.114440000000    -0.247783   
O125     O      0.230620000000     0.863010000000     0.103910000000    -0.255621   
O126     O      0.121930000000     0.796030000000     0.127080000000    -0.248333   
O127     O      0.222090000000     0.841250000000     0.165900000000    -0.257169   
O128     O      0.169330000000     0.931550000000     0.123580000000    -0.249674   
O129     O      0.172160000000     0.273630000000     0.938140000000    -0.247667   
O130     O      0.123830000000     0.330030000000     0.469040000000    -0.255408   
O131     O      0.043910000000     0.324310000000     0.910570000000    -0.247474   
O132     O      0.191760000000     0.356720000000     0.414180000000    -0.253792   
O133     O      0.138980000000     0.400950000000     0.416730000000    -0.257514   
O134     O      0.097180000000     0.323820000000     0.385720000000    -0.253554   
O135     O      0.117880000000     0.253540000000     0.417040000000    -0.254509   
O136     O      0.064890000000     0.355710000000     0.454230000000    -0.249707   
O137     O      0.156660000000     0.291240000000     0.615100000000    -0.253412   
O138     O      0.109660000000     0.304080000000     0.688110000000    -0.246575   
O139     O      0.086780000000     0.350100000000     0.616200000000    -0.252918   
O140     O      0.199510000000     0.372030000000     0.644030000000    -0.257488   
O141     O      0.182010000000     0.358650000000     0.679320000000    -0.25154    
O142     O      0.095760000000     0.398200000000     0.641740000000    -0.254257   
O143     O      0.154470000000     0.256510000000     0.646830000000    -0.256417   
O144     O      0.056940000000     0.315820000000     0.664100000000    -0.254161   
O145     O      0.018230000000     0.604190000000     0.504570000000    -0.251394   
O146     O      0.977420000000     0.637090000000     0.431600000000    -0.249972   
O147     O      0.921940000000     0.623270000000     0.499790000000    -0.248542   
O148     O      0.908690000000     0.552690000000     0.467730000000    -0.256003   
O149     O      0.959430000000     0.540580000000     0.442630000000    -0.252239   
O150     O      0.931710000000     0.665950000000     0.471520000000    -0.252825   
O151     O      0.026930000000     0.549950000000     0.483270000000    -0.254634   
O152     O      0.037670000000     0.632690000000     0.451090000000    -0.254771   
O153     O      0.822930000000     0.570000000000     0.773530000000    -0.24662    
O154     O      0.902720000000     0.478520000000     0.725830000000    -0.251685   
O155     O      0.886700000000     0.516000000000     0.792490000000    -0.251263   
O156     O      0.917590000000     0.607140000000     0.746900000000    -0.256019   
O157     O      0.930030000000     0.563430000000     0.719490000000    -0.250894   
O158     O      0.948220000000     0.517990000000     0.774100000000    -0.257832   
O159     O      0.814430000000     0.568300000000     0.736450000000    -0.253241   
O160     O      0.836140000000     0.479350000000     0.738520000000    -0.253861   
O161     O      0.792770000000     0.157580000000     0.624050000000    -0.25398    
O162     O      0.864520000000     0.213390000000     0.662550000000    -0.25412    
O163     O      0.879530000000     0.232430000000     0.589100000000    -0.248017   
O164     O      0.884440000000     0.111200000000     0.627450000000    -0.255337   
O165     O      0.930230000000     0.153280000000     0.643610000000    -0.245772   
O166     O      0.938060000000     0.204730000000     0.603130000000    -0.253946   
O167     O      0.825950000000     0.153550000000     0.591070000000    -0.251428   
O168     O      0.829870000000     0.248050000000     0.636500000000    -0.253572   
O169     O      0.817750000000     0.154860000000     0.327760000000    -0.254156   
O170     O      0.824890000000     0.288590000000     0.794700000000    -0.257796   
O171     O      0.816150000000     0.219420000000     0.363040000000    -0.251042   
O172     O      0.754840000000     0.220490000000     0.789950000000    -0.266293   
O173     O      0.727480000000     0.225790000000     0.824220000000    -0.254503   
O174     O      0.800130000000     0.281600000000     0.852020000000    -0.251487   
O175     O      0.858120000000     0.181270000000     0.800870000000    -0.257033   
O176     O      0.877840000000     0.268630000000     0.817040000000    -0.256382   
O177     O      0.811730000000     0.388280000000     0.506280000000    -0.257374   
O178     O      0.707880000000     0.320190000000     0.551760000000    -0.248868   
O179     O      0.707090000000     0.408810000000     0.498070000000    -0.25161    
O180     O      0.799960000000     0.399230000000     0.560450000000    -0.254047   
O181     O      0.731740000000     0.401140000000     0.570880000000    -0.247044   
O182     O      0.719480000000     0.448960000000     0.527020000000    -0.254467   
O183     O      0.805500000000     0.326820000000     0.520540000000    -0.255244   
O184     O      0.693510000000     0.326190000000     0.515470000000    -0.251875   
O185     O      0.640200000000     0.399880000000     0.774940000000    -0.244918   
O186     O      0.618500000000     0.369790000000     0.843090000000    -0.253021   
O187     O      0.618220000000     0.473650000000     0.784050000000    -0.246043   
O188     O      0.714920000000     0.443620000000     0.823660000000    -0.248391   
O189     O      0.666940000000     0.461220000000     0.849290000000    -0.253579   
O190     O      0.596020000000     0.490900000000     0.818150000000    -0.250143   
O191     O      0.681560000000     0.367860000000     0.799410000000    -0.243366   
O192     O      0.563280000000     0.396850000000     0.825370000000    -0.256214   
O193     O      0.527370000000     0.673630000000     0.456930000000    -0.254438   
O194     O      0.434510000000     0.681040000000     0.405590000000    -0.254691   
O195     O      0.444720000000     0.730390000000     0.474250000000    -0.244773   
O196     O      0.371460000000     0.643610000000     0.448320000000    -0.256167   
O197     O      0.422980000000     0.597880000000     0.451190000000    -0.250326   
O198     O      0.435020000000     0.669910000000     0.489370000000    -0.253562   
O199     O      0.509410000000     0.630120000000     0.430410000000    -0.250116   
O200     O      0.429740000000     0.735910000000     0.426600000000    -0.250586   
O201     O      0.411340000000     0.718050000000     0.755410000000    -0.256516   
O202     O      0.326600000000     0.755400000000     0.694210000000    -0.247259   
O203     O      0.322600000000     0.728400000000     0.769990000000    -0.254326   
O204     O      0.312320000000     0.648010000000     0.736090000000    -0.257241   
O205     O      0.323250000000     0.665260000000     0.700580000000    -0.250485   
O206     O      0.281860000000     0.755610000000     0.743460000000    -0.261102   
O207     O      0.422340000000     0.693390000000     0.721230000000    -0.25788    
O208     O      0.376400000000     0.782760000000     0.715980000000    -0.262567   
O209     O      0.610160000000     0.890390000000     0.574080000000    -0.255306   
O210     O      0.521420000000     0.853600000000     0.521300000000    -0.255901   
O211     O      0.578600000000     0.815670000000     0.582930000000    -0.251861   
O212     O      0.623970000000     0.771630000000     0.538550000000    -0.258163   
O213     O      0.630680000000     0.812270000000     0.509300000000    -0.255369   
O214     O      0.526840000000     0.802540000000     0.558450000000    -0.256852   
O215     O      0.659880000000     0.878960000000     0.548140000000    -0.254677   
O216     O      0.568310000000     0.903530000000     0.521570000000    -0.254369   
O217     O      0.510200000000     0.901810000000     0.791060000000    -0.242881   
O218     O      0.604810000000     0.832730000000     0.745220000000    -0.252628   
O219     O      0.633120000000     0.943440000000     0.764920000000    -0.255482   
O220     O      0.522450000000     0.931950000000     0.736550000000    -0.258263   
O221     O      0.585420000000     0.913360000000     0.722900000000    -0.249189   
O222     O      0.591140000000     0.944080000000     0.794950000000    -0.244554   
O223     O      0.506590000000     0.849350000000     0.767950000000    -0.256376   
O224     O      0.616790000000     0.838680000000     0.781780000000    -0.25772    
O225     O      0.507560000000     0.050990000000     0.521330000000    -0.261656   
O226     O      0.415060000000     0.982020000000     0.574310000000    -0.247144   
O227     O      0.404830000000     0.044740000000     0.509950000000    -0.253101   
O228     O      0.411220000000     0.102430000000     0.550060000000    -0.255758   
O229     O      0.411630000000     0.066210000000     0.581280000000    -0.252858   
O230     O      0.403100000000     0.982270000000     0.522940000000    -0.260652   
O231     O      0.519970000000     0.051390000000     0.558000000000    -0.25827    
O232     O      0.479210000000     0.968140000000     0.559870000000    -0.248586   
O233     O      0.466630000000     0.005710000000     0.359630000000    -0.246062   
O234     O      0.407800000000     0.105560000000     0.825890000000    -0.252464   
O235     O      0.324180000000     0.033920000000     0.352900000000    -0.255898   
O236     O      0.363210000000     0.033570000000     0.802030000000    -0.255314   
O237     O      0.409750000000     0.983860000000     0.806210000000    -0.257979   
O238     O      0.371990000000     0.062040000000     0.875400000000    -0.259784   
O239     O      0.409170000000     0.966260000000     0.859770000000    -0.266228   
O240     O      0.468760000000     0.076680000000     0.835990000000    -0.247341   
O241     O      0.187140000000     0.966340000000     0.843220000000    -0.251953   
O242     O      0.166740000000     0.866070000000     0.374710000000    -0.256093   
O243     O      0.108190000000     0.991550000000     0.851610000000    -0.24842    
O244     O      0.151580000000     0.990020000000     0.407360000000    -0.26846    
O245     O      0.142460000000     0.926610000000     0.418130000000    -0.255842   
O246     O      0.065350000000     0.957530000000     0.374700000000    -0.25149    
O247     O      0.224630000000     0.942210000000     0.371870000000    -0.258689   
O248     O      0.105180000000     0.879690000000     0.358000000000    -0.255204   
O249     O      0.179690000000     0.894220000000     0.669900000000    -0.252643   
O250     O      0.121710000000     0.893160000000     0.606090000000    -0.256351   
O251     O      0.101370000000     0.840210000000     0.652830000000    -0.255804   
O252     O      0.214130000000     0.800850000000     0.614440000000    -0.247647   
O253     O      0.230610000000     0.863020000000     0.603920000000    -0.255543   
O254     O      0.121920000000     0.796040000000     0.627090000000    -0.248509   
O255     O      0.222080000000     0.841250000000     0.665910000000    -0.257181   
O256     O      0.169330000000     0.931560000000     0.623590000000    -0.24965    


