data_structure

_audit_creation_method RASPA-1.0
_audit_creation_date 2023-5-25
_audit_author_name 'Poobodin Mano'

_cell_length_a    41.5341
_cell_length_b    47.679
_cell_length_c    45.5217
_cell_angle_alpha 90
_cell_angle_beta  90
_cell_angle_gamma 90
_cell_volume      90146.8

_symmetry_cell_setting          triclinic
_symmetry_space_group_name_Hall 'P 1'
_symmetry_space_group_name_H-M  'P 1'
_symmetry_Int_Tables_number     1

_symmetry_equiv_pos_as_xyz 'x,y,z'

loop_
_atom_site_label
_atom_site_type_symbol
_atom_site_fract_x
_atom_site_fract_y
_atom_site_fract_z
_atom_site_charge
C1       C      0.963860000000     0.373130000000     0.908440000000     0.360928   
C2       C      0.889690000000     0.387150000000     0.833380000000     0.339785   
C3       C      0.954280000000     0.305380000000     0.833650000000     0.340799   
C4       C      0.873540000000     0.308750000000     0.899190000000     0.360194   
C5       C      0.123680000000     0.564770000000     0.086080000000     0.341834   
C6       C      0.205880000000     0.562250000000     0.156090000000     0.358483   
C7       C      0.200380000000     0.640130000000     0.092690000000     0.342418   
C8       C      0.118620000000     0.625740000000     0.164730000000     0.339167   
C9       C      0.374920000000     0.890500000000     0.826240000000     0.339451   
C10      C      0.367020000000     0.814010000000     0.899530000000     0.360121   
C11      C      0.444230000000     0.821220000000     0.824200000000     0.357558   
C12      C      0.440460000000     0.882320000000     0.912360000000     0.356945   
C13      C      0.638990000000     0.113290000000     0.167170000000     0.35544    
C14      C      0.705800000000     0.131790000000     0.086640000000     0.338307   
C15      C      0.710000000000     0.045780000000     0.147470000000     0.358638   
C16      C      0.634960000000     0.062590000000     0.071100000000     0.338516   
C17      C      0.460030000000     0.313700000000     0.307640000000     0.340697   
C18      C      0.381710000000     0.379620000000     0.330770000000     0.33908    
C19      C      0.407370000000     0.314130000000     0.403580000000     0.342039   
C20      C      0.484270000000     0.379720000000     0.380350000000     0.340002   
C21      C      0.686320000000     0.548170000000     0.658860000000     0.358774   
C22      C      0.600210000000     0.556140000000     0.590530000000     0.357347   
C23      C      0.617150000000     0.622240000000     0.667610000000     0.342526   
C24      C      0.686770000000     0.619260000000     0.584860000000     0.358154   
C25      C      0.871110000000     0.881030000000     0.351390000000     0.340726   
C26      C      0.945890000000     0.809920000000     0.340840000000     0.35769    
C27      C      0.951220000000     0.873990000000     0.422900000000     0.357591   
C28      C      0.877570000000     0.802740000000     0.422170000000     0.34063    
C29      C      0.131710000000     0.072780000000     0.574540000000     0.340175   
C30      C      0.139890000000     0.156800000000     0.635640000000     0.359375   
C31      C      0.205050000000     0.079710000000     0.652330000000     0.35886    
C32      C      0.211040000000     0.137320000000     0.562000000000     0.357848   
C33      C      0.973840000000     0.924180000000     0.480940000000    -0.0322258  
C34      C      0.107220000000     0.017670000000     0.521470000000    -0.0277881  
C35      C      0.077930000000     0.052270000000     0.567100000000    -0.0110129  
C36      C      0.122420000000     0.045910000000     0.529190000000    -0.0113118  
C37      C      0.061920000000     0.967410000000     0.525090000000    -0.0526494  
C38      C      0.017910000000     0.975640000000     0.479360000000    -0.0530557  
C39      C      0.055910000000     0.994710000000     0.514630000000     0.0655974  
C40      C      0.064820000000     0.023690000000     0.557580000000    -0.027847   
C41      C      0.024160000000     0.948310000000     0.489590000000     0.0670729  
C42      C      0.017600000000     0.920350000000     0.445670000000    -0.109747   
C43      C      0.046140000000     0.944450000000     0.512580000000    -0.0471035  
C44      C      0.005380000000     0.892000000000     0.434590000000     0.321857   
C45      C      0.959690000000     0.896000000000     0.471360000000     0.00612154 
C46      C      0.033730000000     0.998590000000     0.491830000000    -0.0496426  
C47      C      0.758100000000     0.643920000000     0.543110000000    -0.0321657  
C48      C      0.811950000000     0.770950000000     0.466170000000    -0.0284608  
C49      C      0.877780000000     0.757670000000     0.448680000000    -0.0109945  
C50      C      0.835310000000     0.794790000000     0.459150000000    -0.0105533  
C51      C      0.787060000000     0.710590000000     0.472100000000    -0.0529084  
C52      C      0.787240000000     0.701800000000     0.532880000000    -0.0538379  
C53      C      0.808480000000     0.725850000000     0.489990000000     0.064699   
C54      C      0.852480000000     0.735510000000     0.456380000000    -0.0281864  
C55      C      0.765790000000     0.686580000000     0.514990000000     0.0666547  
C56      C      0.718550000000     0.681320000000     0.545480000000    -0.110292   
C57      C      0.765990000000     0.691100000000     0.484590000000    -0.0477512  
C58      C      0.691440000000     0.660870000000     0.553120000000     0.322165   
C59      C      0.732950000000     0.621670000000     0.550920000000     0.00546517 
C60      C      0.808420000000     0.721200000000     0.520380000000    -0.0502299  
C61      C      0.284270000000     0.158720000000     0.522970000000    -0.0319571  
C62      C      0.344200000000     0.285800000000     0.450130000000    -0.0289892  
C63      C      0.411370000000     0.273340000000     0.437000000000    -0.0103882  
C64      C      0.367850000000     0.309640000000     0.443920000000    -0.0102154  
C65      C      0.335810000000     0.236170000000     0.503600000000    -0.0500175  
C66      C      0.298440000000     0.205020000000     0.464260000000    -0.0478402  
C67      C      0.339280000000     0.240550000000     0.473350000000     0.0647084  
C68      C      0.386350000000     0.250660000000     0.443610000000    -0.0287845  
C69      C      0.294860000000     0.200730000000     0.494500000000     0.0669502  
C70      C      0.243860000000     0.195580000000     0.519260000000    -0.109796   
C71      C      0.313710000000     0.216530000000     0.514200000000    -0.053774   
C72      C      0.216520000000     0.174830000000     0.525000000000     0.321881   
C73      C      0.258500000000     0.136540000000     0.529200000000     0.00643939 
C74      C      0.320340000000     0.224820000000     0.453670000000    -0.0526265  
C75      C      0.570300000000     0.494480000000     0.553570000000    -0.031444   
C76      C      0.513950000000     0.444220000000     0.409840000000    -0.0291291  
C77      C      0.527990000000     0.384750000000     0.416980000000    -0.0102657  
C78      C      0.514350000000     0.424580000000     0.383200000000    -0.0102242  
C79      C      0.512480000000     0.460430000000     0.474730000000    -0.0524009  
C80      C      0.573540000000     0.481920000000     0.487550000000    -0.0531108  
C81      C      0.538960000000     0.452930000000     0.457050000000     0.0649613  
C82      C      0.527050000000     0.405230000000     0.442810000000    -0.0288448  
C83      C      0.547050000000     0.489400000000     0.505230000000     0.067407   
C84      C      0.562140000000     0.535670000000     0.522490000000    -0.109126   
C85      C      0.516590000000     0.478560000000     0.498560000000    -0.0475723  
C86      C      0.561250000000     0.555010000000     0.549340000000     0.32192    
C87      C      0.569520000000     0.512500000000     0.581360000000     0.00609826 
C88      C      0.569400000000     0.463870000000     0.463660000000    -0.0492386  
C89      C      0.726920000000     0.987410000000     0.197790000000    -0.03248    
C90      C      0.851800000000     0.938490000000     0.300260000000    -0.028728   
C91      C      0.817990000000     0.893550000000     0.330870000000    -0.0104555  
C92      C      0.864180000000     0.928260000000     0.330060000000    -0.0103578  
C93      C      0.810270000000     0.939230000000     0.244390000000    -0.0523674  
C94      C      0.768740000000     0.984730000000     0.252760000000    -0.0536853  
C95      C      0.803070000000     0.948310000000     0.273090000000     0.0647796  
C96      C      0.807430000000     0.905210000000     0.301080000000    -0.028568   
C97      C      0.775730000000     0.975500000000     0.224070000000     0.0672045  
C98      C      0.773680000000     0.018090000000     0.195200000000    -0.110025   
C99      C      0.796610000000     0.952740000000     0.220150000000    -0.0476066  
C100     C      0.763070000000     0.029850000000     0.165440000000     0.322485   
C101     C      0.714340000000     0.998020000000     0.168210000000     0.00667456 
C102     C      0.782290000000     0.971140000000     0.277000000000    -0.0491999  
C103     C      0.569400000000     0.143350000000     0.202690000000    -0.0315274  
C104     C      0.524500000000     0.278550000000     0.268790000000    -0.0289107  
C105     C      0.454570000000     0.274710000000     0.272060000000    -0.0104237  
C106     C      0.504150000000     0.305130000000     0.272200000000    -0.0103626  
C107     C      0.538210000000     0.214970000000     0.267320000000    -0.0530867  
C108     C      0.552500000000     0.205160000000     0.208160000000    -0.054096   
C109     C      0.525760000000     0.233010000000     0.245590000000     0.0643221  
C110     C      0.476390000000     0.249080000000     0.268550000000    -0.0287959  
C111     C      0.564600000000     0.186900000000     0.229850000000     0.0660661  
C112     C      0.616660000000     0.172790000000     0.211380000000    -0.109395   
C113     C      0.557340000000     0.192070000000     0.259400000000    -0.0481887  
C114     C      0.639220000000     0.147620000000     0.207950000000     0.321563   
C115     C      0.590590000000     0.117330000000     0.198740000000     0.00622409 
C116     C      0.533130000000     0.227910000000     0.216060000000    -0.0507048  
C117     C      0.272510000000     0.048690000000     0.693750000000    -0.032286   
C118     C      0.308950000000     0.926670000000     0.786460000000    -0.0279879  
C119     C      0.378920000000     0.929750000000     0.791240000000    -0.0113585  
C120     C      0.327890000000     0.900420000000     0.795040000000    -0.0111176  
C121     C      0.296220000000     0.988310000000     0.771340000000    -0.0530763  
C122     C      0.287500000000     0.988070000000     0.710390000000    -0.0535164  
C123     C      0.310270000000     0.966920000000     0.754270000000     0.0651468  
C124     C      0.357590000000     0.954620000000     0.782710000000    -0.0277078  
C125     C      0.273450000000     0.009450000000     0.727450000000     0.0666203  
C126     C      0.224530000000     0.020270000000     0.700900000000    -0.109933   
C127     C      0.278010000000     0.009380000000     0.757930000000    -0.0475305  
C128     C      0.202420000000     0.044510000000     0.691990000000     0.321846   
C129     C      0.252490000000     0.074120000000     0.684460000000     0.00611168 
C130     C      0.305770000000     0.967040000000     0.723780000000    -0.0499365  
C131     C      0.466670000000     0.761550000000     0.777440000000    -0.0321547  
C132     C      0.602740000000     0.685260000000     0.712530000000    -0.0290767  
C133     C      0.569140000000     0.633560000000     0.697250000000    -0.0103692  
C134     C      0.622060000000     0.658660000000     0.705920000000    -0.00953337 
C135     C      0.544420000000     0.723960000000     0.717120000000    -0.0522909  
C136     C      0.527700000000     0.725370000000     0.776640000000    -0.053024   
C137     C      0.553830000000     0.701830000000     0.735750000000     0.065301   
C138     C      0.551950000000     0.661160000000     0.704070000000    -0.0284932  
C139     C      0.518240000000     0.747470000000     0.758000000000     0.0673374  
C140     C      0.515120000000     0.786780000000     0.791760000000    -0.109481   
C141     C      0.526830000000     0.746560000000     0.728270000000    -0.0469116  
C142     C      0.495910000000     0.813430000000     0.798550000000     0.321966   
C143     C      0.445520000000     0.787150000000     0.783420000000     0.00625588 
C144     C      0.545390000000     0.702810000000     0.765520000000    -0.0492878  
C145     C      0.463850000000     0.942790000000     0.957330000000    -0.0319956  
C146     C      0.608450000000     0.005700000000     0.023160000000    -0.028315   
C147     C      0.584830000000     0.060450000000     0.041820000000    -0.0105224  
C148     C      0.632230000000     0.029490000000     0.029360000000    -0.0109234  
C149     C      0.548240000000     0.994720000000     0.972640000000    -0.0498741  
C150     C      0.522550000000     0.954560000000     0.010790000000    -0.0478471  
C151     C      0.556080000000     0.995690000000     0.002550000000     0.0644092  
C152     C      0.562670000000     0.035610000000     0.035050000000    -0.028763   
C153     C      0.514630000000     0.953640000000     0.980890000000     0.0667618  
C154     C      0.510150000000     0.912130000000     0.950570000000    -0.109723   
C155     C      0.527770000000     0.973880000000     0.961790000000    -0.0537654  
C156     C      0.488490000000     0.886890000000     0.944070000000     0.322041   
C157     C      0.440380000000     0.918790000000     0.950980000000     0.00616768 
C158     C      0.543150000000     0.975310000000     0.021610000000    -0.0525929  
C159     C      0.962440000000     0.762430000000     0.278250000000    -0.0321118  
C160     C      0.091980000000     0.669290000000     0.226740000000    -0.0286942  
C161     C      0.063670000000     0.642830000000     0.175110000000    -0.0104119  
C162     C      0.106120000000     0.641850000000     0.215010000000    -0.01067    
C163     C      0.049230000000     0.721900000000     0.227610000000    -0.052418   
C164     C      0.004530000000     0.710410000000     0.271980000000    -0.0539715  
C165     C      0.041900000000     0.693880000000     0.234760000000     0.064452   
C166     C      0.051140000000     0.670190000000     0.188400000000    -0.028743   
C167     C      0.011780000000     0.738430000000     0.264750000000     0.0669908  
C168     C      0.008480000000     0.762810000000     0.311150000000    -0.110018   
C169     C      0.034180000000     0.743920000000     0.242490000000    -0.0476817  
C170     C      0.998050000000     0.790540000000     0.325050000000     0.321882   
C171     C      0.949620000000     0.790010000000     0.290910000000     0.00586337 
C172     C      0.019450000000     0.688380000000     0.256980000000    -0.0501903  
C173     C      0.303250000000     0.789220000000     0.950030000000    -0.0325425  
C174     C      0.262390000000     0.668050000000     0.042450000000    -0.0279447  
C175     C      0.207310000000     0.688900000000     0.075670000000    -0.0106397  
C176     C      0.252550000000     0.653410000000     0.070950000000    -0.0112812  
C177     C      0.258730000000     0.708450000000     0.990510000000    -0.0524331  
C178     C      0.304800000000     0.749570000000     0.003000000000    -0.0534879  
C179     C      0.267610000000     0.713680000000     0.019860000000     0.064918   
C180     C      0.219140000000     0.702090000000     0.046970000000    -0.0282697  
C181     C      0.296110000000     0.744180000000     0.973630000000     0.0672732  
C182     C      0.345460000000     0.754080000000     0.947260000000    -0.110039   
C183     C      0.272940000000     0.723620000000     0.967660000000    -0.0475967  
C184     C      0.358380000000     0.766140000000     0.918410000000     0.322169   
C185     C      0.314190000000     0.802930000000     0.921330000000     0.00632281 
C186     C      0.290620000000     0.734380000000     0.025850000000    -0.0491922  
C187     C      0.240870000000     0.496510000000     0.185140000000    -0.032309   
C188     C      0.340890000000     0.443390000000     0.306250000000    -0.0288338  
C189     C      0.334670000000     0.383040000000     0.297680000000    -0.0107967  
C190     C      0.349500000000     0.423230000000     0.331200000000    -0.0103973  
C191     C      0.323290000000     0.461910000000     0.243940000000    -0.0529064  
C192     C      0.258540000000     0.477760000000     0.247370000000    -0.0539004  
C193     C      0.303580000000     0.450650000000     0.266190000000     0.0644939  
C194     C      0.326610000000     0.404590000000     0.273900000000    -0.0285904  
C195     C      0.278260000000     0.488990000000     0.225120000000     0.0665641  
C196     C      0.255440000000     0.535130000000     0.217290000000    -0.10986    
C197     C      0.310630000000     0.480910000000     0.223630000000    -0.0478539  
C198     C      0.248470000000     0.556870000000     0.193380000000     0.321625   
C199     C      0.233150000000     0.516450000000     0.159760000000     0.00585347 
C200     C      0.271200000000     0.458740000000     0.267690000000    -0.0504187  
C201     C      0.118150000000     0.201670000000     0.697150000000    -0.0324071  
C202     C      0.976790000000     0.265150000000     0.767790000000    -0.0279103  
C203     C      0.003220000000     0.277050000000     0.825820000000    -0.01143    
C204     C      0.954030000000     0.270490000000     0.793600000000    -0.0108868  
C205     C      0.040230000000     0.261770000000     0.733960000000    -0.0525037  
C206     C      0.054240000000     0.204490000000     0.730310000000    -0.0528214  
C207     C      0.027260000000     0.243110000000     0.754820000000     0.0658989  
C208     C      0.024010000000     0.271540000000     0.798720000000    -0.0276206  
C209     C      0.067220000000     0.223140000000     0.709440000000     0.067314   
C210     C      0.071160000000     0.194230000000     0.665910000000    -0.11017    
C211     C      0.060030000000     0.251770000000     0.711480000000    -0.0470327  
C212     C      0.092440000000     0.187940000000     0.639270000000     0.322948   
C213     C      0.141040000000     0.195660000000     0.671610000000     0.00716468 
C214     C      0.034430000000     0.214490000000     0.752770000000    -0.0489962  
C215     C      0.805430000000     0.287130000000     0.946270000000    -0.0321066  
C216     C      0.765980000000     0.165110000000     0.038140000000    -0.0280092  
C217     C      0.707210000000     0.180740000000     0.069120000000    -0.0108074  
C218     C      0.756840000000     0.149750000000     0.066410000000    -0.0116072  
C219     C      0.758990000000     0.205190000000     0.985800000000    -0.0526515  
C220     C      0.802390000000     0.248140000000     0.999420000000    -0.0535416  
C221     C      0.766620000000     0.210810000000     0.015370000000     0.0645757  
C222     C      0.718590000000     0.194860000000     0.040760000000    -0.0283573  
C223     C      0.795000000000     0.242350000000     0.969840000000     0.0664863  
C224     C      0.845390000000     0.249900000000     0.944740000000    -0.110417   
C225     C      0.773080000000     0.220910000000     0.963310000000    -0.0477724  
C226     C      0.859920000000     0.261180000000     0.916260000000     0.322323   
C227     C      0.818550000000     0.300310000000     0.917980000000     0.00612938 
C228     C      0.788200000000     0.232500000000     0.021920000000    -0.0503218  
C229     C      0.728650000000     0.518390000000     0.723340000000    -0.032288   
C230     C      0.854110000000     0.418360000000     0.767070000000    -0.0286697  
C231     C      0.858340000000     0.431040000000     0.829630000000    -0.0105064  
C232     C      0.883720000000     0.409140000000     0.784560000000    -0.0105477  
C233     C      0.786630000000     0.441710000000     0.755940000000    -0.0529481  
C234     C      0.796600000000     0.495190000000     0.732320000000    -0.0539743  
C235     C      0.815590000000     0.456040000000     0.761780000000     0.0645182  
C236     C      0.829730000000     0.439460000000     0.810380000000    -0.0286365  
C237     C      0.767590000000     0.480910000000     0.726600000000     0.0665664  
C238     C      0.752020000000     0.499050000000     0.678880000000    -0.10972    
C239     C      0.762900000000     0.454120000000     0.738490000000    -0.0476905  
C240     C      0.722590000000     0.507260000000     0.660510000000     0.321645   
C241     C      0.698100000000     0.527430000000     0.707200000000     0.00560134 
C242     C      0.820340000000     0.482770000000     0.749780000000    -0.0504512  
C243     C      0.991940000000     0.409630000000     0.974700000000    -0.0320782  
C244     C      0.098400000000     0.525280000000     0.020020000000    -0.0289488  
C245     C      0.077470000000     0.532790000000     0.080680000000    -0.0102968  
C246     C      0.105850000000     0.552810000000     0.035930000000    -0.0102369  
C247     C      0.075120000000     0.464730000000     0.011820000000    -0.0530591  
C248     C      0.015960000000     0.469640000000     0.982890000000    -0.0542539  
C249     C      0.057270000000     0.489750000000     0.014230000000     0.0641052  
C250     C      0.071360000000     0.506130000000     0.062880000000    -0.028509   
C251     C      0.033710000000     0.444570000000     0.980600000000     0.066325   
C252     C      0.020320000000     0.427840000000     0.931960000000    -0.109892   
C253     C      0.063330000000     0.442370000000     0.995140000000    -0.0479971  
C254     C      0.013390000000     0.401210000000     0.914310000000     0.321819   
C255     C      0.983720000000     0.382320000000     0.958700000000     0.00619004 
C256     C      0.027710000000     0.491970000000     0.999620000000    -0.0503299  
Cd1      Cd     0.919500000000     0.344620000000     0.869610000000     0.511597   
Cd2      Cd     0.162690000000     0.598890000000     0.124410000000     0.509422   
Cd3      Cd     0.406680000000     0.852510000000     0.866360000000     0.514096   
Cd4      Cd     0.671980000000     0.088040000000     0.117920000000     0.511104   
Cd5      Cd     0.433290000000     0.346350000000     0.355290000000     0.507069   
Cd6      Cd     0.647600000000     0.586520000000     0.624710000000     0.513364   
Cd7      Cd     0.910520000000     0.841860000000     0.383990000000     0.511653   
Cd8      Cd     0.172380000000     0.110970000000     0.606770000000     0.513969   
F1       F      0.022930000000     0.870790000000     0.447840000000    -0.42256    
F2       F      0.673770000000     0.655170000000     0.528030000000    -0.424491   
F3       F      0.203180000000     0.166780000000     0.498420000000    -0.424705   
F4       F      0.529500000000     0.559780000000     0.557150000000    -0.424802   
F5       F      0.779610000000     0.016080000000     0.143310000000    -0.425663   
F6       F      0.646260000000     0.136880000000     0.235480000000    -0.429448   
F7       F      0.190470000000     0.057230000000     0.717070000000    -0.427412   
F8       F      0.498230000000     0.831630000000     0.774940000000    -0.426871   
F9       F      0.485130000000     0.871050000000     0.969370000000    -0.427247   
F10      F      0.015560000000     0.812220000000     0.312610000000    -0.422082   
F11      F      0.347090000000     0.750080000000     0.895240000000    -0.425733   
F12      F      0.277220000000     0.565040000000     0.180560000000    -0.426313   
F13      F      0.095490000000     0.212020000000     0.622500000000    -0.424784   
F14      F      0.847780000000     0.246030000000     0.892790000000    -0.427388   
F15      F      0.703370000000     0.483850000000     0.656430000000    -0.426095   
F16      F      0.040080000000     0.383820000000     0.915400000000    -0.426843   
H1       H      0.028870000000     0.019480000000     0.483600000000     0.0535071  
H2       H      0.967900000000     0.927510000000     0.504530000000     0.0441049  
H3       H      0.044240000000     0.921010000000     0.442970000000     0.0898369  
H4       H      0.063370000000     0.068970000000     0.556410000000     0.0526187  
H5       H      0.967610000000     0.879600000000     0.487150000000     0.0658099  
H6       H      0.112400000000     0.013070000000     0.497960000000     0.044535   
H7       H      0.038290000000     0.023600000000     0.561060000000     0.0426151  
H8       H      0.149050000000     0.043790000000     0.527890000000     0.0554665  
H9       H      0.009810000000     0.890900000000     0.410530000000     0.0116097  
H10      H      0.001020000000     0.979200000000     0.461650000000     0.0473995  
H11      H      0.932980000000     0.897310000000     0.472520000000     0.0480659  
H12      H      0.078930000000     0.963860000000     0.542710000000     0.0486787  
H13      H      0.962380000000     0.941280000000     0.467950000000     0.0428947  
H14      H      0.074730000000     0.054410000000     0.591250000000     0.0549166  
H15      H      0.118540000000     0.000940000000     0.535070000000     0.0448843  
H16      H      0.075560000000     0.007030000000     0.571650000000     0.0446126  
H17      H      0.051170000000     0.923540000000     0.520660000000     0.061997   
H18      H      0.007010000000     0.937330000000     0.431920000000     0.0607281  
H19      H      0.114970000000     0.061600000000     0.512440000000     0.0546818  
H20      H      0.824600000000     0.732920000000     0.534420000000     0.0512747  
H21      H      0.776920000000     0.633960000000     0.529160000000     0.0437844  
H22      H      0.707990000000     0.699450000000     0.533440000000     0.0876326  
H23      H      0.893830000000     0.760680000000     0.467980000000     0.0498713  
H24      H      0.725240000000     0.610950000000     0.530390000000     0.0651155  
H25      H      0.794170000000     0.778730000000     0.482560000000     0.0421328  
H26      H      0.865040000000     0.716820000000     0.465520000000     0.0413796  
H27      H      0.821790000000     0.811820000000     0.447900000000     0.0521791  
H28      H      0.675180000000     0.671330000000     0.569150000000     0.00532993 
H29      H      0.787370000000     0.698910000000     0.556460000000     0.0460449  
H30      H      0.744400000000     0.605660000000     0.565280000000     0.048382   
H31      H      0.786410000000     0.713970000000     0.448610000000     0.047896   
H32      H      0.769770000000     0.651490000000     0.563660000000     0.0414576  
H33      H      0.892830000000     0.749640000000     0.430300000000     0.051747   
H34      H      0.798630000000     0.765010000000     0.445850000000     0.0444479  
H35      H      0.839760000000     0.729010000000     0.435950000000     0.0429776  
H36      H      0.749460000000     0.679690000000     0.470600000000     0.0618886  
H37      H      0.729550000000     0.689380000000     0.566140000000     0.05853    
H38      H      0.844730000000     0.803460000000     0.480140000000     0.0486617  
H39      H      0.322210000000     0.228050000000     0.430200000000     0.0482701  
H40      H      0.304730000000     0.148440000000     0.511420000000     0.0442165  
H41      H      0.234500000000     0.212820000000     0.505130000000     0.0886155  
H42      H      0.424730000000     0.278090000000     0.457580000000     0.0457111  
H43      H      0.252890000000     0.125400000000     0.508360000000     0.0671782  
H44      H      0.325420000000     0.293700000000     0.465500000000     0.0423351  
H45      H      0.398740000000     0.232610000000     0.454220000000     0.0411788  
H46      H      0.354810000000     0.326890000000     0.432590000000     0.0511963  
H47      H      0.197580000000     0.185790000000     0.537880000000     0.0109986  
H48      H      0.283830000000     0.193250000000     0.448880000000     0.0623262  
H49      H      0.268450000000     0.120880000000     0.544860000000     0.0491403  
H50      H      0.349980000000     0.248320000000     0.518990000000     0.0510824  
H51      H      0.293270000000     0.167160000000     0.544250000000     0.0430692  
H52      H      0.428920000000     0.265030000000     0.420750000000     0.0512861  
H53      H      0.332200000000     0.279550000000     0.429250000000     0.0456186  
H54      H      0.375720000000     0.243300000000     0.422520000000     0.0444015  
H55      H      0.311060000000     0.213940000000     0.537690000000     0.0471249  
H56      H      0.251780000000     0.204900000000     0.540510000000     0.0614394  
H57      H      0.376850000000     0.317900000000     0.465240000000     0.0457701  
H58      H      0.590020000000     0.458160000000     0.450380000000     0.0519837  
H59      H      0.560740000000     0.473310000000     0.559080000000     0.0467899  
H60      H      0.546600000000     0.544840000000     0.505020000000     0.0895011  
H61      H      0.553320000000     0.382980000000     0.409260000000     0.0453618  
H62      H      0.544670000000     0.512120000000     0.590420000000     0.0708669  
H63      H      0.521790000000     0.465440000000     0.402580000000     0.0429333  
H64      H      0.544400000000     0.397880000000     0.459780000000     0.0418169  
H65      H      0.496570000000     0.432140000000     0.366750000000     0.0521804  
H66      H      0.572140000000     0.575470000000     0.543160000000     0.0125554  
H67      H      0.597380000000     0.489850000000     0.492340000000     0.0492347  
H68      H      0.585830000000     0.503080000000     0.598020000000     0.0565644  
H69      H      0.488740000000     0.452110000000     0.470260000000     0.0486939  
H70      H      0.595720000000     0.492100000000     0.546190000000     0.0480049  
H71      H      0.520180000000     0.363690000000     0.424650000000     0.051449   
H72      H      0.488830000000     0.445800000000     0.418220000000     0.0463049  
H73      H      0.502460000000     0.405060000000     0.452580000000     0.0457098  
H74      H      0.496050000000     0.484020000000     0.512030000000     0.0616072  
H75      H      0.587260000000     0.534740000000     0.514010000000     0.0633585  
H76      H      0.538650000000     0.425510000000     0.373010000000     0.0455867  
H77      H      0.776650000000     0.978430000000     0.298940000000     0.0523111  
H78      H      0.718960000000     0.965290000000     0.200690000000     0.0449111  
H79      H      0.800450000000     0.018800000000     0.196350000000     0.0882528  
H80      H      0.803200000000     0.903570000000     0.348320000000     0.047107   
H81      H      0.721550000000     0.982850000000     0.150860000000     0.0667631  
H82      H      0.858220000000     0.961040000000     0.297840000000     0.0432786  
H83      H      0.780820000000     0.903020000000     0.299270000000     0.0417255  
H84      H      0.890930000000     0.929240000000     0.330010000000     0.0535815  
H85      H      0.769820000000     0.052400000000     0.164590000000     0.00751218 
H86      H      0.752870000000     0.002390000000     0.256410000000     0.0493347  
H87      H      0.687590000000     0.998500000000     0.168940000000     0.0498789  
H88      H      0.826420000000     0.921760000000     0.240740000000     0.0487687  
H89      H      0.716090000000     0.000230000000     0.215700000000     0.0455982  
H90      H      0.812940000000     0.870650000000     0.331360000000     0.0521894  
H91      H      0.864040000000     0.926550000000     0.282440000000     0.0465495  
H92      H      0.818700000000     0.892530000000     0.283300000000     0.0447676  
H93      H      0.802330000000     0.945510000000     0.198210000000     0.0621085  
H94      H      0.763960000000     0.031660000000     0.213030000000     0.0625648  
H95      H      0.855360000000     0.942810000000     0.347380000000     0.0470397  
H96      H      0.523970000000     0.241740000000     0.199140000000     0.0499649  
H97      H      0.545850000000     0.136650000000     0.212020000000     0.0439156  
H98      H      0.627840000000     0.187930000000     0.226960000000     0.0853853  
H99      H      0.446010000000     0.281180000000     0.249930000000     0.0449737  
H100     H      0.591720000000     0.105980000000     0.220060000000     0.0679824  
H101     H      0.546710000000     0.284020000000     0.256360000000     0.0411671  
H102     H      0.463100000000     0.232800000000     0.255900000000     0.0409232  
H103     H      0.517800000000     0.320630000000     0.285530000000     0.0509356  
H104     H      0.662090000000     0.155050000000     0.197940000000     0.0050505  
H105     H      0.558140000000     0.201920000000     0.185200000000     0.0459608  
H106     H      0.579170000000     0.103150000000     0.182400000000     0.0492356  
H107     H      0.533240000000     0.218640000000     0.290330000000     0.0480414  
H108     H      0.564970000000     0.152900000000     0.180750000000     0.0431573  
H109     H      0.433130000000     0.268710000000     0.285270000000     0.051511   
H110     H      0.531740000000     0.270900000000     0.290950000000     0.0454339  
H111     H      0.481940000000     0.240470000000     0.290710000000     0.0447335  
H112     H      0.566760000000     0.178400000000     0.276340000000     0.0610949  
H113     H      0.613970000000     0.183400000000     0.189720000000     0.0592803  
H114     H      0.500170000000     0.314350000000     0.250060000000     0.0450521  
H115     H      0.316330000000     0.950660000000     0.710410000000     0.0526545  
H116     H      0.295010000000     0.056360000000     0.704330000000     0.0440159  
H117     H      0.211390000000     0.006650000000     0.716740000000     0.0870705  
H118     H      0.389700000000     0.920790000000     0.770940000000     0.0529036  
H119     H      0.249850000000     0.088330000000     0.703680000000     0.0656942  
H120     H      0.286710000000     0.919960000000     0.774760000000     0.0430129  
H121     H      0.371710000000     0.968790000000     0.768160000000     0.0423609  
H122     H      0.313660000000     0.888460000000     0.811510000000     0.0544688  
H123     H      0.181710000000     0.035650000000     0.679590000000     0.00406671 
H124     H      0.284240000000     0.987570000000     0.686810000000     0.046891   
H125     H      0.265840000000     0.085760000000     0.667140000000     0.0487647  
H126     H      0.299200000000     0.988620000000     0.794950000000     0.0480845  
H127     H      0.279270000000     0.036480000000     0.673820000000     0.0427886  
H128     H      0.398990000000     0.937550000000     0.805200000000     0.054014   
H129     H      0.301660000000     0.938140000000     0.806720000000     0.0447235  
H130     H      0.350970000000     0.966520000000     0.802890000000     0.0434824  
H131     H      0.267260000000     0.025650000000     0.771330000000     0.061253   
H132     H      0.230270000000     0.007490000000     0.681100000000     0.0588942  
H133     H      0.330610000000     0.886910000000     0.775280000000     0.0510152  
H134     H      0.552310000000     0.685880000000     0.780060000000     0.0523569  
H135     H      0.455250000000     0.748980000000     0.759660000000     0.0471078  
H136     H      0.539770000000     0.792910000000     0.784630000000     0.0879766  
H137     H      0.568980000000     0.620320000000     0.717360000000     0.0491894  
H138     H      0.440970000000     0.798120000000     0.762260000000     0.0669475  
H139     H      0.616570000000     0.698170000000     0.728520000000     0.0423444  
H140     H      0.527990000000     0.656210000000     0.713720000000     0.0444791  
H141     H      0.644730000000     0.664700000000     0.694560000000     0.0518096  
H142     H      0.507020000000     0.823830000000     0.817930000000     0.00726417 
H143     H      0.521150000000     0.725430000000     0.799650000000     0.0489108  
H144     H      0.421920000000     0.779850000000     0.792050000000     0.0555686  
H145     H      0.550420000000     0.723620000000     0.693990000000     0.0501808  
H146     H      0.467800000000     0.748340000000     0.797600000000     0.0479382  
H147     H      0.555360000000     0.622270000000     0.679970000000     0.0581828  
H148     H      0.599950000000     0.697590000000     0.691910000000     0.0464037  
H149     H      0.548030000000     0.672940000000     0.683230000000     0.0485481  
H150     H      0.519550000000     0.763320000000     0.713650000000     0.0620958  
H151     H      0.517340000000     0.774110000000     0.812220000000     0.0614475  
H152     H      0.628740000000     0.648580000000     0.727090000000     0.0467945  
H153     H      0.549040000000     0.975410000000     0.044760000000     0.0486605  
H154     H      0.452030000000     0.957720000000     0.972730000000     0.0438322  
H155     H      0.532800000000     0.904420000000     0.960850000000     0.0877592  
H156     H      0.586070000000     0.074090000000     0.022040000000     0.045322   
H157     H      0.431850000000     0.910070000000     0.972260000000     0.0658768  
H158     H      0.619040000000     0.991810000000     0.006040000000     0.0432731  
H159     H      0.539360000000     0.043910000000     0.026700000000     0.0409479  
H160     H      0.654640000000     0.020390000000     0.038720000000     0.0552475  
H161     H      0.500620000000     0.873650000000     0.927270000000     0.00752954 
H162     H      0.512790000000     0.939040000000     0.025700000000     0.0617307  
H163     H      0.419090000000     0.927390000000     0.939230000000     0.0486716  
H164     H      0.558150000000     0.010140000000     0.957700000000     0.0512476  
H165     H      0.469060000000     0.954110000000     0.936470000000     0.0432772  
H166     H      0.574060000000     0.072970000000     0.059930000000     0.0514582  
H167     H      0.605010000000     0.993110000000     0.043540000000     0.0465645  
H168     H      0.557920000000     0.023890000000     0.055750000000     0.0450488  
H169     H      0.522280000000     0.973520000000     0.938560000000     0.0472475  
H170     H      0.516520000000     0.922670000000     0.929520000000     0.0610735  
H171     H      0.638560000000     0.039720000000     0.008180000000     0.0471049  
H172     H      0.013730000000     0.666940000000     0.262830000000     0.0503377  
H173     H      0.954870000000     0.760950000000     0.254840000000     0.0436111  
H174     H      0.035210000000     0.761330000000     0.312360000000     0.0891591  
H175     H      0.048520000000     0.625250000000     0.183280000000     0.0453303  
H176     H      0.956450000000     0.807390000000     0.275860000000     0.0651785  
H177     H      0.096010000000     0.670040000000     0.250910000000     0.0427494  
H178     H      0.024810000000     0.671610000000     0.184100000000     0.0406038  
H179     H      0.132640000000     0.642170000000     0.218310000000     0.0533756  
H180     H      0.004030000000     0.789720000000     0.348850000000     0.0106804  
H181     H      0.987610000000     0.705590000000     0.289340000000     0.0460886  
H182     H      0.922880000000     0.789030000000     0.291550000000     0.0473822  
H183     H      0.066700000000     0.726730000000     0.210710000000     0.0485185  
H184     H      0.951430000000     0.744590000000     0.290430000000     0.0416772  
H185     H      0.060810000000     0.643810000000     0.150850000000     0.0508923  
H186     H      0.104950000000     0.687300000000     0.216590000000     0.045983   
H187     H      0.063150000000     0.688180000000     0.177300000000     0.0443202  
H188     H      0.040200000000     0.765360000000     0.236890000000     0.0628393  
H189     H      0.998160000000     0.745070000000     0.323990000000     0.0599371  
H190     H      0.096190000000     0.624170000000     0.228110000000     0.0462466  
H191     H      0.297690000000     0.738610000000     0.048320000000     0.0530935  
H192     H      0.276850000000     0.792530000000     0.952410000000     0.0444743  
H193     H      0.350590000000     0.731160000000     0.947730000000     0.0886321  
H194     H      0.216800000000     0.701410000000     0.094380000000     0.0487449  
H195     H      0.298360000000     0.795450000000     0.903250000000     0.0658924  
H196     H      0.288840000000     0.665450000000     0.039520000000     0.0444685  
H197     H      0.213370000000     0.724890000000     0.047430000000     0.0415424  
H198     H      0.256760000000     0.630500000000     0.068440000000     0.0570305  
H199     H      0.385080000000     0.764440000000     0.918710000000     0.00703389 
H200     H      0.322610000000     0.765370000000     0.008220000000     0.0486263  
H201     H      0.310910000000     0.826000000000     0.923240000000     0.0496747  
H202     H      0.241030000000     0.692560000000     0.985280000000     0.0481872  
H203     H      0.315510000000     0.799690000000     0.968830000000     0.0443225  
H204     H      0.180580000000     0.690180000000     0.076330000000     0.0512158  
H205     H      0.250060000000     0.657710000000     0.023620000000     0.0452588  
H206     H      0.206000000000     0.692450000000     0.028180000000     0.0438251  
H207     H      0.266020000000     0.719260000000     0.945180000000     0.0616139  
H208     H      0.358450000000     0.763990000000     0.965980000000     0.0618943  
H209     H      0.268390000000     0.661000000000     0.088970000000     0.0531306  
H210     H      0.255760000000     0.450260000000     0.284670000000     0.0506759  
H211     H      0.249160000000     0.476200000000     0.175740000000     0.0432261  
H212     H      0.274530000000     0.543560000000     0.232020000000     0.0873699  
H213     H      0.311990000000     0.376970000000     0.309010000000     0.0461269  
H214     H      0.254050000000     0.516880000000     0.144510000000     0.0649745  
H215     H      0.332090000000     0.463350000000     0.316060000000     0.0422816  
H216     H      0.307230000000     0.395820000000     0.259730000000     0.0406924  
H217     H      0.369870000000     0.432240000000     0.343940000000     0.0519613  
H218     H      0.237620000000     0.575620000000     0.204030000000     0.00497855 
H219     H      0.233450000000     0.483680000000     0.249020000000     0.0459074  
H220     H      0.212190000000     0.507960000000     0.147420000000     0.0472656  
H221     H      0.348390000000     0.456020000000     0.242290000000     0.0479446  
H222     H      0.218520000000     0.492540000000     0.198020000000     0.0415836  
H223     H      0.344650000000     0.363950000000     0.287020000000     0.0510451  
H224     H      0.363000000000     0.448050000000     0.293280000000     0.0450901  
H225     H      0.348310000000     0.408110000000     0.260010000000     0.0439635  
H226     H      0.326070000000     0.489400000000     0.206650000000     0.0613085  
H227     H      0.233310000000     0.531840000000     0.230660000000     0.0583336  
H228     H      0.328460000000     0.421540000000     0.346210000000     0.0464954  
H229     H      0.024650000000     0.199920000000     0.768700000000     0.0542011  
H230     H      0.130070000000     0.216780000000     0.712300000000     0.0463645  
H231     H      0.048270000000     0.203790000000     0.658050000000     0.0881577  
H232     H      0.001370000000     0.257310000000     0.838700000000     0.0526922  
H233     H      0.148560000000     0.215970000000     0.661760000000     0.068516   
H234     H      0.964670000000     0.250640000000     0.752140000000     0.0441269  
H235     H      0.047020000000     0.261800000000     0.806030000000     0.0446791  
H236     H      0.932440000000     0.281840000000     0.785380000000     0.056382   
H237     H      0.080200000000     0.171790000000     0.625640000000     0.00798979 
H238     H      0.059450000000     0.182270000000     0.729250000000     0.0496755  
H239     H      0.162960000000     0.185170000000     0.680310000000     0.05224    
H240     H      0.035100000000     0.283990000000     0.735110000000     0.0493383  
H241     H      0.113660000000     0.181840000000     0.709400000000     0.0477158  
H242     H      0.015510000000     0.292890000000     0.839810000000     0.0600007  
H243     H      0.981470000000     0.285330000000     0.756220000000     0.0456632  
H244     H      0.029710000000     0.291880000000     0.787870000000     0.0470906  
H245     H      0.069870000000     0.266340000000     0.695590000000     0.0619805  
H246     H      0.065240000000     0.174160000000     0.677190000000     0.0619308  
H247     H      0.945860000000     0.249930000000     0.802420000000     0.0543794  
H248     H      0.794460000000     0.236920000000     0.044550000000     0.0512387  
H249     H      0.779190000000     0.291680000000     0.947690000000     0.0434618  
H250     H      0.849000000000     0.226760000000     0.945350000000     0.0873459  
H251     H      0.714170000000     0.194190000000     0.088040000000     0.0475577  
H252     H      0.803090000000     0.293610000000     0.899310000000     0.065289   
H253     H      0.792700000000     0.165010000000     0.036160000000     0.0439049  
H254     H      0.709990000000     0.216980000000     0.040790000000     0.0403564  
H255     H      0.763950000000     0.127360000000     0.064260000000     0.0574643  
H256     H      0.886380000000     0.257680000000     0.917070000000     0.00522799 
H257     H      0.819550000000     0.264350000000     0.005080000000     0.046084   
H258     H      0.816760000000     0.323520000000     0.919780000000     0.047503   
H259     H      0.742620000000     0.188390000000     0.980120000000     0.048056   
H260     H      0.817500000000     0.297070000000     0.965470000000     0.0418752  
H261     H      0.680480000000     0.179450000000     0.068760000000     0.0501041  
H262     H      0.755830000000     0.153600000000     0.018960000000     0.0455504  
H263     H      0.707560000000     0.183920000000     0.021630000000     0.0430181  
H264     H      0.767400000000     0.216050000000     0.940660000000     0.0619275  
H265     H      0.858400000000     0.259200000000     0.963800000000     0.0596952  
H266     H      0.770850000000     0.158880000000     0.084900000000     0.0511354  
H267     H      0.842490000000     0.494040000000     0.754090000000     0.0503525  
H268     H      0.722250000000     0.513850000000     0.746610000000     0.0431843  
H269     H      0.763190000000     0.480060000000     0.668960000000     0.087338   
H270     H      0.874710000000     0.449380000000     0.831770000000     0.0454334  
H271     H      0.678950000000     0.511640000000     0.711420000000     0.0650335  
H272     H      0.861610000000     0.422280000000     0.743950000000     0.0424336  
H273     H      0.819120000000     0.459070000000     0.819440000000     0.0404767  
H274     H      0.892280000000     0.388710000000     0.775730000000     0.0530866  
H275     H      0.731150000000     0.514290000000     0.638550000000     0.00435885 
H276     H      0.800780000000     0.515940000000     0.723470000000     0.045706   
H277     H      0.689820000000     0.547730000000     0.716570000000     0.0475212  
H278     H      0.782340000000     0.421040000000     0.764940000000     0.0486335  
H279     H      0.746290000000     0.535990000000     0.723130000000     0.0414629  
H280     H      0.849330000000     0.425730000000     0.851950000000     0.0511593  
H281     H      0.836100000000     0.401050000000     0.767080000000     0.0458895  
H282     H      0.811100000000     0.422680000000     0.811420000000     0.0447376  
H283     H      0.740680000000     0.442930000000     0.734330000000     0.0614353  
H284     H      0.770020000000     0.516350000000     0.678050000000     0.0578374  
H285     H      0.903200000000     0.424790000000     0.781120000000     0.0470513  
H286     H      0.013750000000     0.511090000000     0.001270000000     0.0498611  
H287     H      0.994090000000     0.405050000000     0.998600000000     0.0432187  
H288     H      0.043460000000     0.436950000000     0.924130000000     0.0864686  
H289     H      0.055280000000     0.545830000000     0.080320000000     0.04591    
H290     H      0.001490000000     0.366040000000     0.965260000000     0.066527   
H291     H      0.095870000000     0.529790000000     0.996140000000     0.0419049  
H292     H      0.048700000000     0.496310000000     0.070950000000     0.0400757  
H293     H      0.129900000000     0.560390000000     0.028710000000     0.051392   
H294     H      0.009480000000     0.407300000000     0.891000000000     0.00422067 
H295     H      0.993080000000     0.471930000000     0.971780000000     0.0455256  
H296     H      0.959540000000     0.375130000000     0.965990000000     0.0474324  
H297     H      0.098050000000     0.462490000000     0.022870000000     0.0477351  
H298     H      0.971860000000     0.424820000000     0.971570000000     0.0416965  
H299     H      0.082130000000     0.526780000000     0.103900000000     0.0505898  
H300     H      0.118950000000     0.510540000000     0.022980000000     0.0447135  
H301     H      0.091470000000     0.491100000000     0.066660000000     0.0435415  
H302     H      0.077280000000     0.423250000000     0.993490000000     0.0611174  
H303     H      0.000880000000     0.443420000000     0.927740000000     0.0580571  
H304     H      0.087760000000     0.568760000000     0.029200000000     0.0465182  
N1       N      0.970980000000     0.888230000000     0.441710000000    -0.178624   
N2       N      0.008970000000     0.923990000000     0.476790000000    -0.0868959  
N3       N      0.072270000000     0.018920000000     0.526420000000    -0.111396   
N4       N      0.111920000000     0.055860000000     0.558370000000    -0.150515   
N5       N      0.704340000000     0.634300000000     0.564930000000    -0.179319   
N6       N      0.742700000000     0.667140000000     0.527130000000    -0.0870741  
N7       N      0.829800000000     0.746900000000     0.478130000000    -0.111998   
N8       N      0.862750000000     0.784850000000     0.441360000000    -0.152258   
N9       N      0.228760000000     0.149730000000     0.540310000000    -0.178625   
N10      N      0.270710000000     0.181190000000     0.504550000000    -0.0867848  
N11      N      0.361350000000     0.261880000000     0.463340000000    -0.112332   
N12      N      0.395410000000     0.299170000000     0.426740000000    -0.153631   
N13      N      0.578150000000     0.541690000000     0.574180000000    -0.177303   
N14      N      0.550440000000     0.507500000000     0.530470000000    -0.0868875  
N15      N      0.535880000000     0.433610000000     0.432800000000    -0.112286   
N16      N      0.507990000000     0.395620000000     0.392830000000    -0.153032   
N17      N      0.728180000000     0.025700000000     0.161060000000    -0.178257   
N18      N      0.762320000000     0.989020000000     0.198450000000    -0.0867879  
N19      N      0.816650000000     0.934930000000     0.298710000000    -0.111962   
N20      N      0.852220000000     0.899800000000     0.336590000000    -0.152377   
N21      N      0.623440000000     0.125720000000     0.190200000000    -0.179465   
N22      N      0.585180000000     0.163470000000     0.222650000000    -0.08707    
N23      N      0.506070000000     0.256980000000     0.252860000000    -0.112592   
N24      N      0.472690000000     0.298140000000     0.285230000000    -0.153414   
N25      N      0.220120000000     0.065550000000     0.674530000000    -0.179706   
N26      N      0.254050000000     0.031330000000     0.714500000000    -0.0871217  
N27      N      0.328750000000     0.944490000000     0.767280000000    -0.111703   
N28      N      0.360260000000     0.907580000000     0.806160000000    -0.15107    
N29      N      0.461660000000     0.806780000000     0.803690000000    -0.177683   
N30      N      0.499030000000     0.770670000000     0.768400000000    -0.086993   
N31      N      0.571190000000     0.677710000000     0.724950000000    -0.111861   
N32      N      0.602850000000     0.638610000000     0.688530000000    -0.15151    
N33      N      0.456380000000     0.896240000000     0.934250000000    -0.17891    
N34      N      0.493580000000     0.931650000000     0.970540000000    -0.0870585  
N35      N      0.577640000000     0.017350000000     0.012810000000    -0.112242   
N36      N      0.617580000000     0.050600000000     0.048900000000    -0.152386   
N37      N      0.963410000000     0.795760000000     0.320190000000    -0.17857    
N38      N      0.997790000000     0.761780000000     0.280390000000    -0.0868303  
N39      N      0.057300000000     0.670530000000     0.220240000000    -0.112338   
N40      N      0.097340000000     0.637680000000     0.183930000000    -0.152679   
N41      N      0.347800000000     0.795440000000     0.914230000000    -0.17851    
N42      N      0.310590000000     0.759050000000     0.949360000000    -0.0870033  
N43      N      0.254100000000     0.698010000000     0.044050000000    -0.111662   
N44      N      0.218810000000     0.659750000000     0.078660000000    -0.151937   
N45      N      0.227180000000     0.545220000000     0.170450000000    -0.179426   
N46      N      0.266190000000     0.508740000000     0.203750000000    -0.0872137  
N47      N      0.315730000000     0.430930000000     0.287560000000    -0.112336   
N48      N      0.356940000000     0.395140000000     0.319500000000    -0.152783   
N49      N      0.124660000000     0.178800000000     0.648940000000    -0.178331   
N50      N      0.087850000000     0.213650000000     0.685950000000    -0.0865954  
N51      N      0.006940000000     0.252600000000     0.778520000000    -0.111556   
N52      N      0.970530000000     0.285990000000     0.817260000000    -0.149717   
N53      N      0.851880000000     0.291080000000     0.912200000000    -0.179862   
N54      N      0.810860000000     0.256620000000     0.945900000000    -0.0868317  
N55      N      0.753950000000     0.194110000000     0.039170000000    -0.112096   
N56      N      0.722210000000     0.152900000000     0.072880000000    -0.151559   
N57      N      0.703470000000     0.529290000000     0.675190000000    -0.179289   
N58      N      0.742130000000     0.493240000000     0.709300000000    -0.0873804  
N59      N      0.840540000000     0.444080000000     0.779970000000    -0.11232    
N60      N      0.876390000000     0.407650000000     0.816240000000    -0.152479   
N61      N      0.985410000000     0.386150000000     0.926580000000    -0.180087   
N62      N      0.022470000000     0.421070000000     0.963430000000    -0.0870796  
N63      N      0.068360000000     0.513190000000     0.031560000000    -0.112337   
N64      N      0.104190000000     0.549300000000     0.068100000000    -0.152864   
O1       O      0.885730000000     0.386500000000     0.860940000000    -0.249806   
O2       O      0.901710000000     0.300820000000     0.892780000000    -0.243485   
O3       O      0.966010000000     0.374750000000     0.880780000000    -0.24462    
O4       O      0.967200000000     0.317490000000     0.855440000000    -0.237753   
O5       O      0.925250000000     0.311810000000     0.828290000000    -0.237927   
O6       O      0.940890000000     0.358410000000     0.918270000000    -0.2546     
O7       O      0.907150000000     0.367970000000     0.822650000000    -0.246226   
O8       O      0.866470000000     0.333720000000     0.892270000000    -0.250337   
O9       O      0.189280000000     0.553630000000     0.134570000000    -0.251778   
O10      O      0.111180000000     0.620780000000     0.138290000000    -0.249688   
O11      O      0.121340000000     0.563560000000     0.113790000000    -0.249071   
O12      O      0.210420000000     0.615480000000     0.097270000000    -0.244416   
O13      O      0.172580000000     0.645680000000     0.102460000000    -0.251238   
O14      O      0.144560000000     0.581610000000     0.076010000000    -0.250198   
O15      O      0.202160000000     0.587740000000     0.163100000000    -0.236494   
O16      O      0.146700000000     0.618550000000     0.172480000000    -0.245601   
O17      O      0.357500000000     0.838450000000     0.892970000000    -0.246455   
O18      O      0.452810000000     0.861590000000     0.899160000000    -0.237268   
O19      O      0.360660000000     0.869570000000     0.837330000000    -0.242464   
O20      O      0.414360000000     0.817130000000     0.827700000000    -0.243264   
O21      O      0.456880000000     0.839750000000     0.840470000000    -0.234507   
O22      O      0.403830000000     0.894190000000     0.834180000000    -0.245949   
O23      O      0.395090000000     0.807560000000     0.891060000000    -0.237607   
O24      O      0.412400000000     0.889250000000     0.904280000000    -0.252616   
O25      O      0.676850000000     0.134640000000     0.094800000000    -0.251213   
O26      O      0.663820000000     0.055660000000     0.076300000000    -0.246516   
O27      O      0.667370000000     0.120070000000     0.160020000000    -0.247432   
O28      O      0.721940000000     0.068880000000     0.139140000000    -0.235073   
O29      O      0.680350000000     0.042250000000     0.142150000000    -0.249978   
O30      O      0.625840000000     0.094470000000     0.151640000000    -0.249157   
O31      O      0.718910000000     0.108510000000     0.092600000000    -0.238452   
O32      O      0.623230000000     0.081400000000     0.087560000000    -0.247801   
O33      O      0.387540000000     0.354940000000     0.322000000000    -0.250546   
O34      O      0.477980000000     0.355210000000     0.389360000000    -0.251501   
O35      O      0.474330000000     0.335020000000     0.317860000000    -0.253021   
O36      O      0.395150000000     0.337220000000     0.395650000000    -0.254079   
O37      O      0.431480000000     0.305850000000     0.388990000000    -0.249422   
O38      O      0.433320000000     0.307650000000     0.319390000000    -0.248094   
O39      O      0.399910000000     0.388950000000     0.350820000000    -0.245916   
O40      O      0.467140000000     0.388740000000     0.359350000000    -0.24542    
O41      O      0.614430000000     0.545170000000     0.612240000000    -0.242895   
O42      O      0.660420000000     0.628290000000     0.595100000000    -0.236778   
O43      O      0.687540000000     0.548520000000     0.631060000000    -0.234239   
O44      O      0.601720000000     0.603390000000     0.653930000000    -0.241712   
O45      O      0.646710000000     0.624680000000     0.661190000000    -0.246848   
O46      O      0.667610000000     0.565830000000     0.670680000000    -0.252306   
O47      O      0.607710000000     0.581250000000     0.584810000000    -0.236563   
O48      O      0.695390000000     0.595180000000     0.593510000000    -0.24944    
O49      O      0.916880000000     0.817040000000     0.336550000000    -0.252243   
O50      O      0.902990000000     0.796030000000     0.408550000000    -0.249888   
O51      O      0.899660000000     0.886840000000     0.359010000000    -0.249657   
O52      O      0.960850000000     0.865570000000     0.398050000000    -0.228688   
O53      O      0.922470000000     0.867910000000     0.429570000000    -0.251888   
O54      O      0.860900000000     0.857020000000     0.358720000000    -0.247359   
O55      O      0.958060000000     0.817260000000     0.365140000000    -0.228115   
O56      O      0.867170000000     0.827300000000     0.417640000000    -0.246405   
O57      O      0.126660000000     0.142740000000     0.615390000000    -0.235789   
O58      O      0.219900000000     0.114790000000     0.574350000000    -0.246284   
O59      O      0.122300000000     0.084530000000     0.597960000000    -0.239324   
O60      O      0.176310000000     0.074420000000     0.644960000000    -0.244895   
O61      O      0.218800000000     0.099280000000     0.638340000000    -0.248952   
O62      O      0.160180000000     0.078280000000     0.566460000000    -0.245476   
O63      O      0.168160000000     0.149480000000     0.642660000000    -0.24854    
O64      O      0.184550000000     0.147530000000     0.570610000000    -0.237816   


