data_structure

_audit_creation_method RASPA-1.0
_audit_creation_date 2023-6-5
_audit_author_name 'Poobodin Mano'

_cell_length_a    58.1136
_cell_length_b    57.4242
_cell_length_c    28.8558
_cell_angle_alpha 90.0309
_cell_angle_beta  89.9115
_cell_angle_gamma 90
_cell_volume      96295.3

_symmetry_cell_setting          triclinic
_symmetry_space_group_name_Hall 'P 1'
_symmetry_space_group_name_H-M  'P 1'
_symmetry_Int_Tables_number     1

_symmetry_equiv_pos_as_xyz 'x,y,z'

loop_
_atom_site_label
_atom_site_type_symbol
_atom_site_fract_x
_atom_site_fract_y
_atom_site_fract_z
_atom_site_charge
C1       C      0.378210000000     0.324590000000     0.008810000000     0.338886   
C2       C      0.312250000000     0.311470000000     0.103800000000     0.350446   
C3       C      0.321970000000     0.380920000000     0.017220000000     0.340652   
C4       C      0.303900000000     0.305690000000     0.948000000000     0.340209   
C5       C      0.325640000000     0.624100000000     0.998520000000     0.350142   
C6       C      0.298890000000     0.696690000000     0.067230000000     0.340946   
C7       C      0.373840000000     0.685730000000     0.997120000000     0.350758   
C8       C      0.302650000000     0.692200000000     0.912700000000     0.349979   
C9       C      0.618480000000     0.326340000000     0.001200000000     0.349203   
C10      C      0.687500000000     0.308270000000     0.930900000000     0.339103   
C11      C      0.670370000000     0.383340000000     0.012230000000     0.338535   
C12      C      0.692300000000     0.316500000000     0.088620000000     0.338084   
C13      C      0.675620000000     0.625100000000     0.038990000000     0.348375   
C14      C      0.686470000000     0.700090000000     0.972270000000     0.340443   
C15      C      0.612030000000     0.671430000000     0.034500000000     0.340257   
C16      C      0.675810000000     0.697050000000     0.124630000000     0.337939   
C17      C      0.806700000000     0.188210000000     0.585010000000     0.350851   
C18      C      0.820150000000     0.114470000000     0.516700000000     0.352152   
C19      C      0.802360000000     0.184170000000     0.425670000000     0.351599   
C20      C      0.874780000000     0.168240000000     0.497080000000     0.350298   
C21      C      0.802070000000     0.799490000000     0.597530000000     0.350179   
C22      C      0.875770000000     0.830300000000     0.528530000000     0.349571   
C23      C      0.814740000000     0.805000000000     0.442220000000     0.349735   
C24      C      0.810640000000     0.874260000000     0.547500000000     0.338581   
C25      C      0.185690000000     0.805210000000     0.436850000000     0.34932    
C26      C      0.111910000000     0.814820000000     0.487810000000     0.340169   
C27      C      0.181440000000     0.820590000000     0.591360000000     0.338998   
C28      C      0.153750000000     0.880360000000     0.503390000000     0.338384   
C29      C      0.182600000000     0.192620000000     0.430420000000     0.338674   
C30      C      0.168780000000     0.121470000000     0.528480000000     0.349145   
C31      C      0.186090000000     0.193610000000     0.588540000000     0.349609   
C32      C      0.114570000000     0.177240000000     0.495780000000     0.339707   
C33      C      0.177850000000     0.060550000000     0.495310000000    -0.0312817  
C34      C      0.145870000000     0.939860000000     0.548980000000    -0.0285187  
C35      C      0.159520000000     0.917580000000     0.462310000000    -0.0110556  
C36      C      0.136320000000     0.915800000000     0.536760000000    -0.010833   
C37      C      0.141690000000     0.994460000000     0.497400000000    -0.0526102  
C38      C      0.180320000000     0.007200000000     0.549270000000    -0.0524723  
C39      C      0.156030000000     0.977130000000     0.515530000000     0.0628411  
C40      C      0.168150000000     0.941540000000     0.477680000000    -0.0283756  
C41      C      0.166000000000     0.024540000000     0.531070000000     0.0621907  
C42      C      0.153860000000     0.061310000000     0.564370000000    -0.0813372  
C43      C      0.146590000000     0.017980000000     0.504940000000    -0.054644   
C44      C      0.162170000000     0.085920000000     0.577200000000     0.165277   
C45      C      0.187450000000     0.084720000000     0.505830000000    -0.00877082 
C46      C      0.175460000000     0.983660000000     0.541600000000    -0.0552655  
C47      C      0.934080000000     0.834830000000     0.478080000000    -0.0315024  
C48      C      0.054040000000     0.802370000000     0.524820000000    -0.0286603  
C49      C      0.077030000000     0.814810000000     0.438490000000    -0.0106693  
C50      C      0.077770000000     0.792380000000     0.513270000000    -0.0106644  
C51      C      0.999980000000     0.799030000000     0.476570000000    -0.0523681  
C52      C      0.989200000000     0.840120000000     0.523980000000    -0.0522983  
C53      C      0.017730000000     0.813810000000     0.491100000000     0.0630037  
C54      C      0.053260000000     0.824140000000     0.452000000000    -0.0286727  
C55      C      0.971450000000     0.825330000000     0.509510000000     0.0622923  
C56      C      0.937040000000     0.814960000000     0.551940000000    -0.081214   
C57      C      0.977020000000     0.804660000000     0.485660000000    -0.0545114  
C58      C      0.913510000000     0.824130000000     0.568070000000     0.165285   
C59      C      0.910740000000     0.845250000000     0.490940000000    -0.00819931 
C60      C      0.012170000000     0.834470000000     0.514980000000    -0.0552132  
C61      C      0.799330000000     0.053410000000     0.498650000000    -0.0310021  
C62      C      0.817990000000     0.934170000000     0.583640000000    -0.0286456  
C63      C      0.786240000000     0.907830000000     0.525730000000    -0.01078    
C64      C      0.810950000000     0.909410000000     0.597250000000    -0.0108652  
C65      C      0.789090000000     0.986420000000     0.566680000000    -0.052679   
C66      C      0.827200000000     0.000650000000     0.514580000000    -0.0522212  
C67      C      0.804070000000     0.969670000000     0.548360000000     0.0629671  
C68      C      0.794090000000     0.932570000000     0.514090000000    -0.0286034  
C69      C      0.812320000000     0.017410000000     0.533150000000     0.0622613  
C70      C      0.821770000000     0.054260000000     0.568860000000    -0.0812016  
C71      C      0.793100000000     0.010120000000     0.559180000000    -0.0546758  
C72      C      0.831330000000     0.078660000000     0.558690000000     0.165754   
C73      C      0.807830000000     0.077360000000     0.483330000000    -0.00755033 
C74      C      0.823160000000     0.976960000000     0.521950000000    -0.0552122  
C75      C      0.935110000000     0.188620000000     0.518330000000    -0.030882   
C76      C      0.055540000000     0.163290000000     0.458500000000    -0.0285219  
C77      C      0.078850000000     0.198650000000     0.513770000000    -0.0107381  
C78      C      0.080420000000     0.169900000000     0.447140000000    -0.0105242  
C79      C      0.003770000000     0.193690000000     0.459250000000    -0.052529   
C80      C      0.986510000000     0.158300000000     0.516070000000    -0.0521025  
C81      C      0.019070000000     0.179340000000     0.483490000000     0.0630629  
C82      C      0.054090000000     0.190810000000     0.522550000000    -0.0284     
C83      C      0.971210000000     0.172630000000     0.491780000000     0.0623075  
C84      C      0.935740000000     0.162480000000     0.452940000000    -0.0811583  
C85      C      0.980020000000     0.190440000000     0.463290000000    -0.0546748  
C86      C      0.910960000000     0.154190000000     0.461520000000     0.165592   
C87      C      0.910690000000     0.181640000000     0.532000000000    -0.00765449 
C88      C      0.010250000000     0.161590000000     0.512120000000    -0.0551751  
C89      C      0.755560000000     0.783050000000     0.678760000000    -0.0312967  
C90      C      0.732950000000     0.715910000000     0.890590000000    -0.0285769  
C91      C      0.686280000000     0.730970000000     0.912890000000    -0.0107924  
C92      C      0.723720000000     0.712660000000     0.939830000000    -0.0106056  
C93      C      0.744220000000     0.764240000000     0.822760000000    -0.0524561  
C94      C      0.743590000000     0.734490000000     0.746000000000    -0.0522698  
C95      C      0.733010000000     0.742720000000     0.825990000000     0.0628588  
C96      C      0.697150000000     0.733450000000     0.864810000000    -0.0284559  
C97      C      0.754830000000     0.756010000000     0.742790000000     0.0622406  
C98      C      0.790920000000     0.764990000000     0.704960000000    -0.0810184  
C99      C      0.755060000000     0.770900000000     0.781600000000    -0.0546612  
C100     C      0.802460000000     0.768080000000     0.657380000000     0.16513    
C101     C      0.765130000000     0.786530000000     0.629940000000    -0.00832586 
C102     C      0.732750000000     0.727820000000     0.787200000000    -0.0552759  
C103     C      0.779030000000     0.797960000000     0.341370000000    -0.0317934  
C104     C      0.713420000000     0.706690000000     0.222570000000    -0.0284339  
C105     C      0.679600000000     0.733380000000     0.170300000000    -0.0108009  
C106     C      0.691790000000     0.694830000000     0.203920000000    -0.0110618  
C107     C      0.724200000000     0.750490000000     0.301180000000    -0.0524696  
C108     C      0.767410000000     0.755380000000     0.259440000000    -0.05249    
C109     C      0.727550000000     0.742520000000     0.255820000000     0.0630145  
C110     C      0.701590000000     0.744120000000     0.190190000000    -0.0286365  
C111     C      0.764090000000     0.763230000000     0.304920000000     0.0624573  
C112     C      0.789980000000     0.759500000000     0.370060000000    -0.0820427  
C113     C      0.742260000000     0.760770000000     0.325660000000    -0.0546885  
C114     C      0.812090000000     0.769340000000     0.391660000000     0.165845   
C115     C      0.800820000000     0.808750000000     0.361790000000    -0.00855626 
C116     C      0.749330000000     0.745090000000     0.234960000000    -0.0552459  
C117     C      0.766570000000     0.200330000000     0.681890000000    -0.0311875  
C118     C      0.728130000000     0.294300000000     0.835890000000    -0.028053   
C119     C      0.688370000000     0.273280000000     0.881390000000    -0.011017   
C120     C      0.710190000000     0.309980000000     0.858880000000    -0.0112412  
C121     C      0.726360000000     0.256360000000     0.743030000000    -0.0521689  
C122     C      0.767330000000     0.237310000000     0.776740000000    -0.0522873  
C123     C      0.732210000000     0.259460000000     0.789670000000     0.0630458  
C124     C      0.707300000000     0.259260000000     0.857190000000    -0.0282308  
C125     C      0.761560000000     0.234350000000     0.729990000000     0.0624603  
C126     C      0.786290000000     0.236210000000     0.662600000000    -0.0813035  
C127     C      0.740840000000     0.243910000000     0.713320000000    -0.0546115  
C128     C      0.805370000000     0.223230000000     0.636170000000     0.165717   
C129     C      0.784830000000     0.185590000000     0.657610000000    -0.00825194 
C130     C      0.752820000000     0.249730000000     0.806480000000    -0.0551531  
C131     C      0.794300000000     0.223360000000     0.325490000000    -0.031251   
C132     C      0.703130000000     0.280120000000     0.190810000000    -0.0284482  
C133     C      0.728930000000     0.311660000000     0.130990000000    -0.0109598  
C134     C      0.690950000000     0.300780000000     0.168200000000    -0.0109971  
C135     C      0.746370000000     0.274640000000     0.271300000000    -0.0522841  
C136     C      0.752510000000     0.228980000000     0.239840000000    -0.0522766  
C137     C      0.738790000000     0.268500000000     0.226910000000     0.0629266  
C138     C      0.739700000000     0.290620000000     0.155280000000    -0.0285142  
C139     C      0.760030000000     0.235110000000     0.284310000000     0.0623595  
C140     C      0.756650000000     0.212460000000     0.354580000000    -0.0813849  
C141     C      0.756880000000     0.258150000000     0.299890000000    -0.0545901  
C142     C      0.766390000000     0.191240000000     0.380430000000     0.165646   
C143     C      0.805700000000     0.202540000000     0.349070000000    -0.00835329 
C144     C      0.741950000000     0.245470000000     0.211280000000    -0.0551377  
C145     C      0.682370000000     0.566690000000     0.989450000000    -0.0315894  
C146     C      0.673420000000     0.443810000000     0.058980000000    -0.0283276  
C147     C      0.672200000000     0.420230000000     0.969370000000    -0.0109912  
C148     C      0.663180000000     0.419330000000     0.056040000000    -0.010841   
C149     C      0.656730000000     0.496620000000     0.013600000000    -0.0524808  
C150     C      0.701320000000     0.512770000000     0.030660000000    -0.0524217  
C151     C      0.674740000000     0.480620000000     0.018450000000     0.0630226  
C152     C      0.681940000000     0.444670000000     0.976830000000    -0.0281113  
C153     C      0.683290000000     0.528780000000     0.025900000000     0.0622658  
C154     C      0.676840000000     0.563000000000     0.072680000000    -0.0815692  
C155     C      0.660870000000     0.520490000000     0.017370000000    -0.0546835  
C156     C      0.684900000000     0.588100000000     0.081090000000     0.165386   
C157     C      0.690770000000     0.591790000000     0.994610000000    -0.00864618 
C158     C      0.697160000000     0.488860000000     0.027060000000    -0.0553767  
C159     C      0.291400000000     0.734140000000     0.819580000000    -0.0314932  
C160     C      0.194780000000     0.784620000000     0.690440000000    -0.0286798  
C161     C      0.216220000000     0.823080000000     0.640650000000    -0.0106471  
C162     C      0.180020000000     0.804300000000     0.670710000000    -0.0106289  
C163     C      0.236970000000     0.780490000000     0.773190000000    -0.0525891  
C164     C      0.250920000000     0.738980000000     0.730900000000    -0.0522331  
C165     C      0.231260000000     0.776340000000     0.726790000000     0.0629499  
C166     C      0.229950000000     0.802900000000     0.661500000000    -0.0287713  
C167     C      0.256590000000     0.743110000000     0.777330000000     0.0622423  
C168     C      0.255360000000     0.715270000000     0.840030000000    -0.0814873  
C169     C      0.249480000000     0.764040000000     0.798410000000    -0.0546697  
C170     C      0.267960000000     0.694350000000     0.861370000000     0.165537   
C171     C      0.305400000000     0.713970000000     0.839430000000    -0.00848396 
C172     C      0.238320000000     0.755380000000     0.705730000000    -0.0552493  
C173     C      0.221040000000     0.795400000000     0.331290000000    -0.0312923  
C174     C      0.264480000000     0.704220000000     0.174980000000    -0.0279821  
C175     C      0.284520000000     0.733030000000     0.102050000000    -0.0107147  
C176     C      0.268820000000     0.693570000000     0.127130000000    -0.0110541  
C177     C      0.229070000000     0.748840000000     0.213830000000    -0.0523736  
C178     C      0.256270000000     0.750500000000     0.293630000000    -0.0520888  
C179     C      0.251290000000     0.739410000000     0.212850000000     0.0631214  
C180     C      0.279470000000     0.741750000000     0.151100000000    -0.0280834  
C181     C      0.234050000000     0.759960000000     0.294600000000     0.0620592  
C182     C      0.205620000000     0.758250000000     0.355830000000    -0.0810985  
C183     C      0.220450000000     0.759040000000     0.254260000000    -0.0544711  
C184     C      0.199640000000     0.767540000000     0.404360000000     0.165425   
C185     C      0.216420000000     0.806450000000     0.378550000000    -0.00838532 
C186     C      0.264890000000     0.740300000000     0.253170000000    -0.0552734  
C187     C      0.434520000000     0.679500000000     0.964660000000    -0.0315057  
C188     C      0.550960000000     0.683220000000     0.062810000000    -0.0283611  
C189     C      0.577540000000     0.660310000000     0.990020000000    -0.0109279  
C190     C      0.574530000000     0.672920000000     0.074300000000    -0.0109263  
C191     C      0.499440000000     0.659180000000     0.027150000000    -0.0524461  
C192     C      0.486450000000     0.703820000000     0.998580000000    -0.0524126  
C193     C      0.516400000000     0.675960000000     0.018570000000     0.0628941  
C194     C      0.553780000000     0.671140000000     0.982370000000    -0.028272   
C195     C      0.469480000000     0.687040000000     0.007250000000     0.0622169  
C196     C      0.432620000000     0.692060000000     0.045050000000    -0.081429   
C197     C      0.476170000000     0.664590000000     0.021580000000    -0.0546981  
C198     C      0.408220000000     0.701880000000     0.038610000000     0.165481   
C199     C      0.410520000000     0.689130000000     0.954860000000    -0.00844652 
C200     C      0.509740000000     0.698400000000     0.004160000000    -0.055319   
C201     C      0.233240000000     0.214120000000     0.666710000000    -0.0313462  
C202     C      0.255390000000     0.284190000000     0.875420000000    -0.0283267  
C203     C      0.305090000000     0.278010000000     0.883040000000    -0.0107395  
C204     C      0.267150000000     0.288970000000     0.921860000000    -0.010959   
C205     C      0.249470000000     0.234220000000     0.808110000000    -0.0525191  
C206     C      0.238300000000     0.263650000000     0.734320000000    -0.0522277  
C207     C      0.255740000000     0.257750000000     0.810010000000     0.0629315  
C208     C      0.291480000000     0.273900000000     0.838510000000    -0.0282857  
C209     C      0.232020000000     0.240120000000     0.732430000000     0.0620588  
C210     C      0.196940000000     0.222710000000     0.703670000000    -0.0811874  
C211     C      0.237740000000     0.225400000000     0.769710000000    -0.0546317  
C212     C      0.183160000000     0.217900000000     0.659290000000     0.165264   
C213     C      0.221900000000     0.209400000000     0.619960000000    -0.00749592 
C214     C      0.250090000000     0.272470000000     0.772700000000    -0.0553891  
C215     C      0.292030000000     0.264810000000     0.179820000000    -0.0316507  
C216     C      0.204710000000     0.239890000000     0.357250000000    -0.0284765  
C217     C      0.205430000000     0.189110000000     0.358500000000    -0.0110356  
C218     C      0.184390000000     0.226500000000     0.377890000000    -0.0109332  
C219     C      0.228730000000     0.243420000000     0.247800000000    -0.0525984  
C220     C      0.268520000000     0.260660000000     0.290080000000    -0.0524167  
C221     C      0.232540000000     0.239130000000     0.294920000000     0.062996   
C222     C      0.224940000000     0.203950000000     0.338600000000    -0.0283943  
C223     C      0.264700000000     0.264980000000     0.242960000000     0.0622233  
C224     C      0.271810000000     0.300470000000     0.200260000000    -0.081487   
C225     C      0.244620000000     0.256230000000     0.221900000000    -0.0546516  
C226     C      0.290850000000     0.315640000000     0.178950000000     0.165614   
C227     C      0.311900000000     0.278540000000     0.158440000000    -0.00845276 
C228     C      0.252610000000     0.247860000000     0.316000000000    -0.0553602  
C229     C      0.558380000000     0.306090000000     0.028050000000    -0.0309864  
C230     C      0.438330000000     0.334200000000     0.970440000000    -0.0284296  
C231     C      0.413280000000     0.304530000000     0.035220000000    -0.0110955  
C232     C      0.413130000000     0.328250000000     0.960840000000    -0.0108493  
C233     C      0.488150000000     0.301550000000     0.977060000000    -0.0526506  
C234     C      0.507880000000     0.338800000000     0.025180000000    -0.0523363  
C235     C      0.473910000000     0.317860000000     0.999010000000     0.0629341  
C236     C      0.438470000000     0.311560000000     0.041460000000    -0.0283123  
C237     C      0.522130000000     0.322500000000     0.003190000000     0.0621     
C238     C      0.556890000000     0.330040000000     0.959670000000    -0.0815014  
C239     C      0.512070000000     0.303790000000     0.978990000000    -0.0547395  
C240     C      0.581940000000     0.338110000000     0.964790000000     0.165986   
C241     C      0.583260000000     0.312750000000     0.038600000000    -0.00725028 
C242     C      0.483960000000     0.336570000000     0.023190000000    -0.0553795  
C243     C      0.312620000000     0.562500000000     0.966570000000    -0.0311457  
C244     C      0.330140000000     0.442810000000     0.048540000000    -0.0283069  
C245     C      0.304820000000     0.415530000000     0.980230000000    -0.0108729  
C246     C      0.322760000000     0.417960000000     0.060300000000    -0.0108896  
C247     C      0.300360000000     0.493540000000     0.024510000000    -0.0523846  
C248     C      0.341440000000     0.510700000000     0.987210000000    -0.0522207  
C249     C      0.317450000000     0.477920000000     0.010160000000     0.0629739  
C250     C      0.312960000000     0.440560000000     0.972000000000    -0.0283355  
C251     C      0.324430000000     0.526330000000     0.001980000000     0.0620484  
C252     C      0.328890000000     0.562640000000     0.043540000000    -0.0811205  
C253     C      0.303720000000     0.517550000000     0.020450000000    -0.0545968  
C254     C      0.337490000000     0.587840000000     0.038840000000     0.165349   
C255     C      0.320770000000     0.587300000000     0.956810000000    -0.00791268 
C256     C      0.338040000000     0.486680000000     0.991140000000    -0.0553577  
Cd1      Cd     0.329130000000     0.331120000000     0.018060000000     0.506949   
Cd2      Cd     0.325320000000     0.674490000000     0.994580000000     0.509271   
Cd3      Cd     0.667650000000     0.333150000000     0.008280000000     0.507006   
Cd4      Cd     0.661740000000     0.673480000000     0.041110000000     0.506733   
Cd5      Cd     0.825440000000     0.164140000000     0.505300000000     0.510364   
Cd6      Cd     0.826030000000     0.827320000000     0.529140000000     0.509273   
Cd7      Cd     0.158470000000     0.830250000000     0.504710000000     0.507234   
Cd8      Cd     0.163210000000     0.170900000000     0.511790000000     0.508353   
H1       H      0.186880000000     0.970610000000     0.555800000000     0.0437428  
H2       H      0.191230000000     0.050480000000     0.476260000000     0.038445   
H3       H      0.149570000000     0.051810000000     0.596880000000     0.0524853  
H4       H      0.145140000000     0.920050000000     0.437410000000     0.0440946  
H5       H      0.204140000000     0.082680000000     0.524170000000     0.0422618  
H6       H      0.132890000000     0.949150000000     0.570540000000     0.0376362  
H7       H      0.171780000000     0.952100000000     0.446170000000     0.0379325  
H8       H      0.134570000000     0.905480000000     0.569170000000     0.0479028  
H9       H      0.195360000000     0.011970000000     0.569230000000     0.0474391  
H10      H      0.190990000000     0.093650000000     0.472390000000     0.0503044  
H11      H      0.126750000000     0.989690000000     0.477150000000     0.0477158  
H12      H      0.162520000000     0.062300000000     0.472430000000     0.0435611  
H13      H      0.173670000000     0.908470000000     0.443700000000     0.0495987  
H14      H      0.176410000000     0.084230000000     0.602870000000     0.00586209 
H15      H      0.161800000000     0.937710000000     0.569970000000     0.0410146  
H16      H      0.184530000000     0.939430000000     0.497230000000     0.0414416  
H17      H      0.135320000000     0.031010000000     0.490180000000     0.0442908  
H18      H      0.137880000000     0.062730000000     0.543290000000     0.0628482  
H19      H      0.118810000000     0.918000000000     0.521880000000     0.0429715  
H20      H      0.142740000000     0.093420000000     0.630060000000     0.143683   
H21      H      0.025550000000     0.846130000000     0.526820000000     0.0442621  
H22      H      0.942910000000     0.846990000000     0.453860000000     0.03829    
H23      H      0.948100000000     0.812410000000     0.583020000000     0.0528479  
H24      H      0.074650000000     0.799290000000     0.415940000000     0.0438059  
H25      H      0.913460000000     0.863360000000     0.503450000000     0.0417351  
H26      H      0.044550000000     0.789410000000     0.546230000000     0.0386263  
H27      H      0.043190000000     0.827170000000     0.419780000000     0.038145   
H28      H      0.087530000000     0.789830000000     0.545970000000     0.0506732  
H29      H      0.985190000000     0.856020000000     0.542480000000     0.0475455  
H30      H      0.900100000000     0.846240000000     0.459000000000     0.0488256  
H31      H      0.004000000000     0.783050000000     0.458330000000     0.0481695  
H32      H      0.931330000000     0.817990000000     0.459740000000     0.0433007  
H33      H      0.086260000000     0.828290000000     0.418010000000     0.0491011  
H34      H      0.916420000000     0.839670000000     0.590560000000     0.00653106 
H35      H      0.056230000000     0.818530000000     0.545710000000     0.0431748  
H36      H      0.055410000000     0.841130000000     0.470100000000     0.04226    
H37      H      0.963650000000     0.792860000000     0.474270000000     0.0447885  
H38      H      0.934730000000     0.797700000000     0.534880000000     0.0639377  
H39      H      0.075390000000     0.775020000000     0.496860000000     0.0440859  
H40      H      0.908780000000     0.807130000000     0.625570000000     0.145225   
H41      H      0.834940000000     0.964370000000     0.507200000000     0.0442438  
H42      H      0.795100000000     0.043090000000     0.467090000000     0.0385071  
H43      H      0.834670000000     0.044640000000     0.590000000000     0.0517702  
H44      H      0.769520000000     0.908860000000     0.544400000000     0.0429364  
H45      H      0.821000000000     0.075010000000     0.455700000000     0.0445511  
H46      H      0.821470000000     0.944230000000     0.615860000000     0.0381513  
H47      H      0.779980000000     0.941480000000     0.494990000000     0.0380793  
H48      H      0.825630000000     0.900830000000     0.615050000000     0.0493101  
H49      H      0.842030000000     0.006000000000     0.494460000000     0.0478985  
H50      H      0.793140000000     0.086940000000     0.467640000000     0.0496149  
H51      H      0.774310000000     0.981070000000     0.586910000000     0.0477302  
H52      H      0.783270000000     0.055430000000     0.519400000000     0.0423042  
H53      H      0.783360000000     0.898110000000     0.492920000000     0.0498202  
H54      H      0.849440000000     0.076790000000     0.546290000000     0.00715592 
H55      H      0.834180000000     0.933340000000     0.563010000000     0.042253   
H56      H      0.809420000000     0.931660000000     0.490960000000     0.0427549  
H57      H      0.781300000000     0.022720000000     0.573830000000     0.0441315  
H58      H      0.805720000000     0.055830000000     0.589840000000     0.0623562  
H59      H      0.796430000000     0.910520000000     0.622300000000     0.042943   
H60      H      0.844800000000     0.087130000000     0.618030000000     0.143791   
H61      H      0.021700000000     0.150330000000     0.531390000000     0.0446218  
H62      H      0.944390000000     0.194200000000     0.550200000000     0.0386611  
H63      H      0.945410000000     0.148110000000     0.435800000000     0.0517136  
H64      H      0.078500000000     0.215030000000     0.493250000000     0.044321   
H65      H      0.911580000000     0.169840000000     0.562500000000     0.0448349  
H66      H      0.046930000000     0.157750000000     0.425870000000     0.0379734  
H67      H      0.044370000000     0.205710000000     0.537620000000     0.0385165  
H68      H      0.089710000000     0.154050000000     0.435270000000     0.0488844  
H69      H      0.979970000000     0.144580000000     0.538180000000     0.0481457  
H70      H      0.901280000000     0.197560000000     0.543190000000     0.0500984  
H71      H      0.010310000000     0.207450000000     0.437240000000     0.0479702  
H72      H      0.934410000000     0.203770000000     0.494240000000     0.04234    
H73      H      0.087070000000     0.202600000000     0.547640000000     0.0514699  
H74      H      0.911650000000     0.136460000000     0.477280000000     0.00741459 
H75      H      0.055550000000     0.148240000000     0.482840000000     0.0422644  
H76      H      0.054090000000     0.176370000000     0.548300000000     0.0431338  
H77      H      0.968580000000     0.201810000000     0.444280000000     0.0442354  
H78      H      0.935550000000     0.177620000000     0.428770000000     0.0622507  
H79      H      0.080330000000     0.182540000000     0.417960000000     0.0435054  
H80      H      0.904010000000     0.138190000000     0.403760000000     0.143891   
H81      H      0.724230000000     0.711090000000     0.788810000000     0.0439217  
H82      H      0.736560000000     0.780930000000     0.676260000000     0.0382563  
H83      H      0.798320000000     0.749240000000     0.721800000000     0.0527924  
H84      H      0.687520000000     0.747990000000     0.931110000000     0.0438778  
H85      H      0.758780000000     0.772160000000     0.607490000000     0.0433828  
H86      H      0.751940000000     0.718290000000     0.892520000000     0.037838   
H87      H      0.689450000000     0.748910000000     0.847510000000     0.0377847  
H88      H      0.730650000000     0.696080000000     0.953980000000     0.048279   
H89      H      0.743280000000     0.722850000000     0.716460000000     0.0477826  
H90      H      0.758080000000     0.803100000000     0.615960000000     0.0488641  
H91      H      0.744570000000     0.775860000000     0.852330000000     0.0477603  
H92      H      0.759170000000     0.798890000000     0.699840000000     0.0427253  
H93      H      0.667710000000     0.726830000000     0.908670000000     0.0487267  
H94      H      0.801070000000     0.751300000000     0.638060000000     0.00833926 
H95      H      0.729400000000     0.699900000000     0.870020000000     0.0413757  
H96      H      0.692960000000     0.717760000000     0.843740000000     0.0412756  
H97      H      0.763610000000     0.787630000000     0.780100000000     0.0443591  
H98      H      0.795000000000     0.780330000000     0.727160000000     0.0632276  
H99      H      0.730300000000     0.727090000000     0.961860000000     0.0431297  
H100     H      0.834010000000     0.758820000000     0.670070000000     0.145928   
H101     H      0.752400000000     0.739010000000     0.199990000000     0.0440542  
H102     H      0.774220000000     0.807930000000     0.309770000000     0.0385981  
H103     H      0.793210000000     0.741150000000     0.359440000000     0.0530089  
H104     H      0.665280000000     0.736540000000     0.195120000000     0.0432981  
H105     H      0.814300000000     0.809070000000     0.334390000000     0.0412898  
H106     H      0.718700000000     0.697650000000     0.254970000000     0.0383594  
H107     H      0.698100000000     0.762690000000     0.198770000000     0.0378438  
H108     H      0.695990000000     0.676510000000     0.194800000000     0.0514022  
H109     H      0.784100000000     0.757140000000     0.243070000000     0.0473648  
H110     H      0.797090000000     0.827080000000     0.371640000000     0.0500514  
H111     H      0.707560000000     0.748570000000     0.317680000000     0.0479077  
H112     H      0.764790000000     0.799570000000     0.367050000000     0.0443419  
H113     H      0.675290000000     0.742320000000     0.137270000000     0.0484351  
H114     H      0.826290000000     0.767370000000     0.365860000000     0.00494066 
H115     H      0.727540000000     0.704800000000     0.196700000000     0.0426681  
H116     H      0.715350000000     0.743530000000     0.163300000000     0.0417545  
H117     H      0.739230000000     0.766670000000     0.360760000000     0.0448233  
H118     H      0.776060000000     0.759530000000     0.396650000000     0.0637248  
H119     H      0.678630000000     0.694490000000     0.231940000000     0.0439873  
H120     H      0.825060000000     0.742090000000     0.421850000000     0.142439   
H121     H      0.757730000000     0.251890000000     0.842390000000     0.0436303  
H122     H      0.759060000000     0.189870000000     0.710650000000     0.0391494  
H123     H      0.793710000000     0.252530000000     0.677160000000     0.0525002  
H124     H      0.673370000000     0.274650000000     0.857660000000     0.046255   
H125     H      0.796980000000     0.178850000000     0.684130000000     0.0447062  
H126     H      0.736040000000     0.304050000000     0.806570000000     0.0381905  
H127     H      0.699620000000     0.242850000000     0.843720000000     0.038193   
H128     H      0.719180000000     0.325060000000     0.874880000000     0.0498614  
H129     H      0.783190000000     0.230030000000     0.790060000000     0.0477728  
H130     H      0.776150000000     0.170330000000     0.641580000000     0.052014   
H131     H      0.710570000000     0.263760000000     0.729650000000     0.0486215  
H132     H      0.752570000000     0.204460000000     0.656870000000     0.0440459  
H133     H      0.682650000000     0.263580000000     0.912710000000     0.0485725  
H134     H      0.820590000000     0.221550000000     0.659470000000     0.00690781 
H135     H      0.741920000000     0.290200000000     0.861390000000     0.0408888  
H136     H      0.720810000000     0.254590000000     0.882910000000     0.0405145  
H137     H      0.735930000000     0.241850000000     0.677400000000     0.0450305  
H138     H      0.772410000000     0.241150000000     0.637900000000     0.0636327  
H139     H      0.698540000000     0.316900000000     0.831640000000     0.0460279  
H140     H      0.822130000000     0.248690000000     0.607220000000     0.143951   
H141     H      0.736120000000     0.240230000000     0.177240000000     0.0439     
H142     H      0.804340000000     0.227710000000     0.293770000000     0.039159   
H143     H      0.738590000000     0.208530000000     0.344410000000     0.0526118  
H144     H      0.732610000000     0.327510000000     0.151860000000     0.0436035  
H145     H      0.807810000000     0.188400000000     0.323060000000     0.0440059  
H146     H      0.694370000000     0.276230000000     0.224260000000     0.0381653  
H147     H      0.758110000000     0.294590000000     0.162400000000     0.0379329  
H148     H      0.673030000000     0.295570000000     0.159640000000     0.0499544  
H149     H      0.754750000000     0.211320000000     0.227440000000     0.0477559  
H150     H      0.823200000000     0.207880000000     0.360460000000     0.051841   
H151     H      0.743960000000     0.292250000000     0.283850000000     0.048128   
H152     H      0.794920000000     0.238630000000     0.349280000000     0.0440044  
H153     H      0.737290000000     0.313900000000     0.096580000000     0.0481055  
H154     H      0.763600000000     0.175470000000     0.358540000000     0.0066098  
H155     H      0.701490000000     0.264570000000     0.167950000000     0.0419036  
H156     H      0.738950000000     0.275300000000     0.131650000000     0.0411076  
H157     H      0.762430000000     0.263350000000     0.334150000000     0.0449826  
H158     H      0.756370000000     0.227740000000     0.378390000000     0.0638056  
H159     H      0.690020000000     0.315250000000     0.193770000000     0.0439683  
H160     H      0.739850000000     0.180670000000     0.415770000000     0.14373    
H161     H      0.711340000000     0.476830000000     0.031190000000     0.0435786  
H162     H      0.690920000000     0.558860000000     0.958620000000     0.038371   
H163     H      0.681330000000     0.552370000000     0.103660000000     0.052538   
H164     H      0.654750000000     0.421800000000     0.953890000000     0.0457815  
H165     H      0.709910000000     0.591720000000     0.995170000000     0.0419357  
H166     H      0.664820000000     0.453240000000     0.087950000000     0.0377099  
H167     H      0.679740000000     0.454750000000     0.944190000000     0.0379436  
H168     H      0.668320000000     0.409440000000     0.087510000000     0.0475483  
H169     H      0.718620000000     0.518880000000     0.037530000000     0.0472945  
H170     H      0.685270000000     0.601780000000     0.963560000000     0.0489145  
H171     H      0.639400000000     0.490500000000     0.007160000000     0.0479435  
H172     H      0.663460000000     0.566840000000     0.983230000000     0.0428436  
H173     H      0.683260000000     0.410960000000     0.943840000000     0.0494685  
H174     H      0.703580000000     0.587690000000     0.089970000000     0.00553563 
H175     H      0.692120000000     0.442570000000     0.067060000000     0.0403139  
H176     H      0.700700000000     0.443410000000     0.984280000000     0.0403601  
H177     H      0.646580000000     0.532440000000     0.013950000000     0.0442262  
H178     H      0.657770000000     0.562810000000     0.068740000000     0.0631007  
H179     H      0.644100000000     0.420730000000     0.056330000000     0.0447684  
H180     H      0.679710000000     0.591900000000     0.147260000000     0.142655   
H181     H      0.233980000000     0.751650000000     0.670040000000     0.0443952  
H182     H      0.301360000000     0.742110000000     0.790670000000     0.0384074  
H183     H      0.238540000000     0.709140000000     0.826180000000     0.0526266  
H184     H      0.216240000000     0.837770000000     0.665790000000     0.0421926  
H185     H      0.310130000000     0.702040000000     0.810570000000     0.0422575  
H186     H      0.186120000000     0.777710000000     0.722010000000     0.0383281  
H187     H      0.247210000000     0.809500000000     0.671780000000     0.0378583  
H188     H      0.163100000000     0.797060000000     0.659980000000     0.050207   
H189     H      0.256160000000     0.722900000000     0.714310000000     0.0475806  
H190     H      0.321640000000     0.721100000000     0.854010000000     0.0494228  
H191     H      0.231530000000     0.796460000000     0.789910000000     0.0476067  
H192     H      0.288960000000     0.747570000000     0.847020000000     0.0430628  
H193     H      0.224970000000     0.829100000000     0.608530000000     0.0482152  
H194     H      0.268930000000     0.680270000000     0.834750000000     0.00597424 
H195     H      0.195920000000     0.770310000000     0.664470000000     0.0433192  
H196     H      0.232350000000     0.789230000000     0.634540000000     0.0422668  
H197     H      0.253470000000     0.767610000000     0.834340000000     0.0442527  
H198     H      0.251850000000     0.728400000000     0.867590000000     0.0630042  
H199     H      0.176860000000     0.817270000000     0.698630000000     0.0427244  
H200     H      0.242770000000     0.676500000000     0.888000000000     0.143286   
H201     H      0.282130000000     0.733170000000     0.253290000000     0.0442745  
H202     H      0.236160000000     0.804280000000     0.315450000000     0.0384045  
H203     H      0.209310000000     0.739270000000     0.358680000000     0.0522008  
H204     H      0.270540000000     0.739050000000     0.078680000000     0.0455238  
H205     H      0.232730000000     0.806560000000     0.398660000000     0.042807   
H206     H      0.249540000000     0.695130000000     0.191010000000     0.0388162  
H207     H      0.275760000000     0.760750000000     0.149330000000     0.0380023  
H208     H      0.274650000000     0.675270000000     0.131730000000     0.0518793  
H209     H      0.266920000000     0.751090000000     0.324370000000     0.0475739  
H210     H      0.211290000000     0.824890000000     0.372970000000     0.0498339  
H211     H      0.218430000000     0.748300000000     0.183070000000     0.0484523  
H212     H      0.205890000000     0.798320000000     0.308420000000     0.0428068  
H213     H      0.300830000000     0.741110000000     0.089830000000     0.0498091  
H214     H      0.213420000000     0.761930000000     0.428830000000     0.00560433 
H215     H      0.279820000000     0.701240000000     0.197320000000     0.0420986  
H216     H      0.295010000000     0.739230000000     0.173100000000     0.0417116  
H217     H      0.203240000000     0.766230000000     0.253990000000     0.0444013  
H218     H      0.190440000000     0.760430000000     0.332660000000     0.0627266  
H219     H      0.252280000000     0.693100000000     0.107830000000     0.0469192  
H220     H      0.181630000000     0.742090000000     0.430130000000     0.143353   
H221     H      0.522510000000     0.711690000000     0.997400000000     0.0437686  
H222     H      0.444820000000     0.680470000000     0.932150000000     0.038303   
H223     H      0.441510000000     0.702490000000     0.072190000000     0.0526053  
H224     H      0.575480000000     0.641170000000     0.994090000000     0.0441801  
H225     H      0.412340000000     0.706810000000     0.939570000000     0.042227   
H226     H      0.540090000000     0.682510000000     0.094580000000     0.0381375  
H227     H      0.545010000000     0.661390000000     0.954090000000     0.0377197  
H228     H      0.583160000000     0.684460000000     0.099900000000     0.0491663  
H229     H      0.481580000000     0.721150000000     0.987560000000     0.0473872  
H230     H      0.402180000000     0.677840000000     0.928460000000     0.0492899  
H231     H      0.504310000000     0.641870000000     0.038310000000     0.0479749  
H232     H      0.433040000000     0.660860000000     0.974900000000     0.0430945  
H233     H      0.588210000000     0.663370000000     0.958580000000     0.0486489  
H234     H      0.409660000000     0.720930000000     0.031530000000     0.00562854 
H235     H      0.553060000000     0.701820000000     0.052730000000     0.0411849  
H236     H      0.555890000000     0.689550000000     0.971010000000     0.0409647  
H237     H      0.463440000000     0.651290000000     0.028520000000     0.0444025  
H238     H      0.431410000000     0.673730000000     0.057500000000     0.0633752  
H239     H      0.571970000000     0.655670000000     0.091040000000     0.045063   
H240     H      0.399980000000     0.710900000000     0.101440000000     0.14277    
H241     H      0.254830000000     0.290690000000     0.773230000000     0.0437141  
H242     H      0.251040000000     0.220530000000     0.660280000000     0.0379964  
H243     H      0.187350000000     0.235760000000     0.724730000000     0.05208    
H244     H      0.308710000000     0.260880000000     0.899460000000     0.0445412  
H245     H      0.224600000000     0.224790000000     0.597190000000     0.0429587  
H246     H      0.237460000000     0.278330000000     0.882390000000     0.0380194  
H247     H      0.300550000000     0.260370000000     0.817730000000     0.0376523  
H248     H      0.258760000000     0.304290000000     0.938350000000     0.0490306  
H249     H      0.234060000000     0.275170000000     0.705870000000     0.0476028  
H250     H      0.230840000000     0.194400000000     0.603420000000     0.0478877  
H251     H      0.253780000000     0.222690000000     0.836490000000     0.0479122  
H252     H      0.234430000000     0.197540000000     0.686590000000     0.0420175  
H253     H      0.321920000000     0.286000000000     0.873810000000     0.0482965  
H254     H      0.178150000000     0.234940000000     0.643720000000     0.00770543 
H255     H      0.254570000000     0.300650000000     0.855080000000     0.0407443  
H256     H      0.291070000000     0.290280000000     0.817840000000     0.0407259  
H257     H      0.233160000000     0.207130000000     0.769090000000     0.0440639  
H258     H      0.198200000000     0.206390000000     0.724410000000     0.0624777  
H259     H      0.264340000000     0.273760000000     0.945020000000     0.0445643  
H260     H      0.151790000000     0.216700000000     0.682800000000     0.144872   
H261     H      0.255940000000     0.244800000000     0.352380000000     0.043714   
H262     H      0.298960000000     0.248140000000     0.193650000000     0.0382903  
H263     H      0.263780000000     0.310270000000     0.229430000000     0.0525253  
H264     H      0.194250000000     0.183270000000     0.329490000000     0.0438903  
H265     H      0.325730000000     0.280310000000     0.184790000000     0.04202    
H266     H      0.198160000000     0.256580000000     0.342770000000     0.0378841  
H267     H      0.233420000000     0.193960000000     0.310260000000     0.0379221  
H268     H      0.177370000000     0.236580000000     0.407620000000     0.0483691  
H269     H      0.283870000000     0.267310000000     0.306740000000     0.0472372  
H270     H      0.319010000000     0.268310000000     0.129000000000     0.0491441  
H271     H      0.213360000000     0.236830000000     0.231170000000     0.0478595  
H272     H      0.279260000000     0.260670000000     0.152290000000     0.043076   
H273     H      0.212970000000     0.173340000000     0.374850000000     0.0497246  
H274     H      0.302880000000     0.320910000000     0.207190000000     0.00539161 
H275     H      0.217210000000     0.244020000000     0.385300000000     0.0413366  
H276     H      0.237910000000     0.207230000000     0.366210000000     0.0415634  
H277     H      0.241220000000     0.259320000000     0.185560000000     0.0443415  
H278     H      0.258300000000     0.297200000000     0.173680000000     0.0633111  
H279     H      0.170650000000     0.225230000000     0.351240000000     0.0433441  
H280     H      0.278050000000     0.346790000000     0.184730000000     0.14243    
H281     H      0.473340000000     0.349450000000     0.040340000000     0.0435406  
H282     H      0.549660000000     0.301730000000     0.061330000000     0.0382762  
H283     H      0.547110000000     0.343970000000     0.941440000000     0.0513695  
H284     H      0.412670000000     0.286660000000     0.020450000000     0.0446811  
H285     H      0.583380000000     0.324910000000     0.068620000000     0.0447165  
H286     H      0.447180000000     0.336980000000     0.936650000000     0.0376374  
H287     H      0.447440000000     0.297430000000     0.060700000000     0.0378015  
H288     H      0.404660000000     0.343720000000     0.945190000000     0.0480698  
H289     H      0.515380000000     0.353310000000     0.043770000000     0.0477407  
H290     H      0.592700000000     0.296810000000     0.049520000000     0.0486404  
H291     H      0.480650000000     0.287100000000     0.958280000000     0.0478461  
H292     H      0.558160000000     0.290230000000     0.005780000000     0.0413273  
H293     H      0.404920000000     0.303950000000     0.069890000000     0.0487203  
H294     H      0.581870000000     0.356520000000     0.977240000000     0.00750367 
H295     H      0.439200000000     0.350750000000     0.990520000000     0.0404934  
H296     H      0.439320000000     0.327730000000     0.062710000000     0.0407179  
H297     H      0.522690000000     0.291020000000     0.961530000000     0.0438647  
H298     H      0.556220000000     0.314080000000     0.937710000000     0.0618314  
H299     H      0.412490000000     0.313920000000     0.934930000000     0.0447261  
H300     H      0.588110000000     0.351150000000     0.903810000000     0.144278   
H301     H      0.351510000000     0.474990000000     0.979740000000     0.0435631  
H302     H      0.311820000000     0.552910000000     0.933060000000     0.0384806  
H303     H      0.340550000000     0.553230000000     0.067730000000     0.0520345  
H304     H      0.286310000000     0.415910000000     0.990010000000     0.0455745  
H305     H      0.336510000000     0.586480000000     0.934910000000     0.0433383  
H306     H      0.330790000000     0.453060000000     0.081280000000     0.038064   
H307     H      0.300770000000     0.449120000000     0.947660000000     0.0380282  
H308     H      0.336410000000     0.409770000000     0.081760000000     0.0494737  
H309     H      0.357430000000     0.517200000000     0.972860000000     0.0474134  
H310     H      0.307250000000     0.596300000000     0.936250000000     0.0499118  
H311     H      0.284440000000     0.487050000000     0.039170000000     0.0483864  
H312     H      0.294940000000     0.563050000000     0.981540000000     0.0429022  
H313     H      0.306350000000     0.405660000000     0.947190000000     0.0485125  
H314     H      0.356350000000     0.587400000000     0.031500000000     0.00665414 
H315     H      0.347760000000     0.442450000000     0.033310000000     0.0407253  
H316     H      0.330280000000     0.440220000000     0.955400000000     0.0408077  
H317     H      0.290270000000     0.529220000000     0.031990000000     0.0445458  
H318     H      0.311320000000     0.562700000000     0.059120000000     0.0628499  
H319     H      0.306830000000     0.418730000000     0.081670000000     0.0462483  
H320     H      0.346200000000     0.595210000000     0.102240000000     0.14457    
N1       N      0.171560000000     0.098030000000     0.535850000000    -0.168256   
N2       N      0.171900000000     0.048670000000     0.538830000000    -0.107921   
N3       N      0.150540000000     0.953050000000     0.506300000000    -0.113245   
N4       N      0.150990000000     0.903990000000     0.502190000000    -0.153694   
N5       N      0.899340000000     0.831750000000     0.528060000000    -0.167847   
N6       N      0.947960000000     0.831630000000     0.520130000000    -0.107768   
N7       N      0.041260000000     0.807170000000     0.481790000000    -0.113245   
N8       N      0.089760000000     0.807790000000     0.480330000000    -0.153341   
N9       N      0.818250000000     0.090810000000     0.521690000000    -0.167625   
N10      N      0.817390000000     0.041720000000     0.525440000000    -0.107298   
N11      N      0.799400000000     0.945360000000     0.557030000000    -0.113368   
N12      N      0.803250000000     0.896440000000     0.556020000000    -0.153718   
N13      N      0.898290000000     0.169490000000     0.494320000000    -0.167221   
N14      N      0.946800000000     0.168680000000     0.496930000000    -0.107234   
N15      N      0.043470000000     0.183410000000     0.478710000000    -0.11313    
N16      N      0.091710000000     0.180880000000     0.487370000000    -0.153018   
N17      N      0.790570000000     0.786200000000     0.629570000000    -0.167433   
N18      N      0.765920000000     0.762220000000     0.699680000000    -0.10762    
N19      N      0.722180000000     0.736450000000     0.869280000000    -0.113173   
N20      N      0.698330000000     0.713200000000     0.940720000000    -0.153822   
N21      N      0.809120000000     0.794560000000     0.400990000000    -0.168981   
N22      N      0.783290000000     0.773400000000     0.329350000000    -0.108065   
N23      N      0.708620000000     0.731410000000     0.232200000000    -0.113361   
N24      N      0.682550000000     0.708060000000     0.164350000000    -0.153157   
N25      N      0.797980000000     0.199330000000     0.623280000000    -0.167328   
N26      N      0.777150000000     0.221650000000     0.700250000000    -0.107578   
N27      N      0.717040000000     0.272950000000     0.818850000000    -0.112939   
N28      N      0.696260000000     0.297000000000     0.893050000000    -0.153075   
N29      N      0.791570000000     0.193650000000     0.387850000000    -0.167727   
N30      N      0.770490000000     0.217460000000     0.313070000000    -0.107634   
N31      N      0.727460000000     0.285900000000     0.198980000000    -0.113205   
N32      N      0.703760000000     0.308920000000     0.127110000000    -0.153489   
N33      N      0.682310000000     0.602190000000     0.038270000000    -0.168549   
N34      N      0.688140000000     0.553290000000     0.031310000000    -0.107961   
N35      N      0.669600000000     0.456110000000     0.015020000000    -0.113029   
N36      N      0.670290000000     0.407130000000     0.013260000000    -0.153408   
N37      N      0.291900000000     0.700770000000     0.874000000000    -0.168496   
N38      N      0.269170000000     0.725470000000     0.802430000000    -0.107856   
N39      N      0.217810000000     0.793510000000     0.702300000000    -0.113375   
N40      N      0.192250000000     0.815840000000     0.632300000000    -0.153934   
N41      N      0.198900000000     0.793390000000     0.405160000000    -0.168122   
N42      N      0.225800000000     0.770440000000     0.337030000000    -0.107662   
N43      N      0.259570000000     0.729210000000     0.170230000000    -0.112878   
N44      N      0.285590000000     0.707350000000     0.100120000000    -0.152281   
N45      N      0.396880000000     0.690950000000     0.997970000000    -0.168495   
N46      N      0.445600000000     0.693330000000     0.001290000000    -0.107929   
N47      N      0.540220000000     0.669710000000     0.025330000000    -0.113084   
N48      N      0.588600000000     0.669660000000     0.032140000000    -0.153685   
N49      N      0.196880000000     0.205100000000     0.624050000000    -0.167736   
N50      N      0.219890000000     0.231690000000     0.692110000000    -0.107347   
N51      N      0.268100000000     0.266060000000     0.850080000000    -0.113038   
N52      N      0.292180000000     0.292550000000     0.916350000000    -0.153719   
N53      N      0.304280000000     0.302050000000     0.144460000000    -0.16862    
N54      N      0.281460000000     0.278430000000     0.217440000000    -0.107949   
N55      N      0.215610000000     0.225950000000     0.320460000000    -0.113285   
N56      N      0.191370000000     0.202750000000     0.391360000000    -0.15367    
N57      N      0.595020000000     0.324170000000     0.999170000000    -0.167547   
N58      N      0.546750000000     0.325690000000     0.005430000000    -0.107097   
N59      N      0.449290000000     0.315000000000     0.995880000000    -0.113133   
N60      N      0.401230000000     0.320500000000     0.003350000000    -0.153547   
N61      N      0.326280000000     0.600230000000     0.999740000000    -0.167548   
N62      N      0.328810000000     0.551030000000     0.998180000000    -0.107477   
N63      N      0.313550000000     0.453280000000     0.016230000000    -0.112998   
N64      N      0.317890000000     0.404370000000     0.018000000000    -0.153162   
O1       O      0.308220000000     0.332320000000     0.092250000000    -0.230989   
O2       O      0.293750000000     0.316560000000     0.980260000000    -0.251588   
O3       O      0.367000000000     0.316450000000     0.042770000000    -0.250297   
O4       O      0.331970000000     0.370640000000     0.050340000000    -0.249612   
O5       O      0.315490000000     0.368140000000     0.983900000000    -0.251749   
O6       O      0.366740000000     0.336160000000     0.979520000000    -0.25221    
O7       O      0.324330000000     0.299790000000     0.075570000000    -0.251987   
O8       O      0.325620000000     0.307060000000     0.947690000000    -0.25348    
O9       O      0.298520000000     0.674850000000     0.061130000000    -0.245348   
O10      O      0.323260000000     0.697420000000     0.922450000000    -0.251965   
O11      O      0.333060000000     0.636530000000     0.031490000000    -0.233477   
O12      O      0.360690000000     0.689410000000     0.031340000000    -0.231514   
O13      O      0.364350000000     0.677070000000     0.961600000000    -0.253334   
O14      O      0.318080000000     0.635090000000     0.963700000000    -0.251804   
O15      O      0.311780000000     0.708140000000     0.040190000000    -0.249638   
O16      O      0.292770000000     0.678480000000     0.940670000000    -0.231936   
O17      O      0.692690000000     0.329170000000     0.940060000000    -0.247279   
O18      O      0.702700000000     0.325270000000     0.054190000000    -0.254809   
O19      O      0.629530000000     0.339160000000     0.973330000000    -0.240983   
O20      O      0.674070000000     0.372110000000     0.975220000000    -0.245841   
O21      O      0.665910000000     0.371260000000     0.047830000000    -0.25549    
O22      O      0.630310000000     0.316340000000     0.032180000000    -0.248309   
O23      O      0.673270000000     0.298650000000     0.958120000000    -0.253432   
O24      O      0.670600000000     0.315440000000     0.085620000000    -0.246987   
O25      O      0.696550000000     0.686030000000     0.999270000000    -0.254139   
O26      O      0.666640000000     0.707950000000     0.091270000000    -0.251867   
O27      O      0.674550000000     0.637250000000     0.002440000000    -0.253718   
O28      O      0.624870000000     0.666530000000     0.000430000000    -0.252357   
O29      O      0.622190000000     0.677520000000     0.071270000000    -0.253292   
O30      O      0.670380000000     0.635530000000     0.076120000000    -0.228582   
O31      O      0.664850000000     0.701650000000     0.976860000000    -0.25162    
O32      O      0.678340000000     0.675330000000     0.119170000000    -0.24296    
O33      O      0.831660000000     0.126810000000     0.544660000000    -0.237105   
O34      O      0.863500000000     0.179370000000     0.527510000000    -0.248057   
O35      O      0.801610000000     0.167300000000     0.575640000000    -0.248973   
O36      O      0.791550000000     0.173350000000     0.457030000000    -0.232484   
O37      O      0.823930000000     0.185450000000     0.431030000000    -0.250434   
O38      O      0.820610000000     0.197940000000     0.557350000000    -0.230165   
O39      O      0.811010000000     0.125230000000     0.483100000000    -0.250939   
O40      O      0.863070000000     0.155370000000     0.470380000000    -0.236236   
O41      O      0.864720000000     0.821830000000     0.562360000000    -0.225199   
O42      O      0.803630000000     0.862730000000     0.512910000000    -0.247009   
O43      O      0.791720000000     0.814030000000     0.572020000000    -0.256282   
O44      O      0.812100000000     0.826640000000     0.448630000000    -0.249354   
O45      O      0.822840000000     0.793770000000     0.476180000000    -0.233086   
O46      O      0.823540000000     0.797780000000     0.590990000000    -0.223401   
O47      O      0.863660000000     0.837690000000     0.495200000000    -0.25702    
O48      O      0.824850000000     0.864020000000     0.573750000000    -0.253368   
O49      O      0.122520000000     0.827790000000     0.459470000000    -0.25377    
O50      O      0.145290000000     0.868030000000     0.535540000000    -0.255995   
O51      O      0.172770000000     0.794880000000     0.465560000000    -0.238387   
O52      O      0.160730000000     0.814830000000     0.584170000000    -0.246642   
O53      O      0.191520000000     0.830990000000     0.558430000000    -0.256021   
O54      O      0.186040000000     0.827210000000     0.439790000000    -0.249371   
O55      O      0.122970000000     0.808830000000     0.523620000000    -0.245207   
O56      O      0.164540000000     0.869470000000     0.471990000000    -0.246954   
O57      O      0.177590000000     0.131600000000     0.493790000000    -0.249404   
O58      O      0.125120000000     0.187860000000     0.527770000000    -0.243471   
O59      O      0.187020000000     0.171710000000     0.441080000000    -0.246221   
O60      O      0.197220000000     0.184250000000     0.555690000000    -0.257716   
O61      O      0.164410000000     0.192290000000     0.585770000000    -0.230495   
O62      O      0.169320000000     0.203490000000     0.457680000000    -0.255585   
O63      O      0.157530000000     0.134390000000     0.555870000000    -0.233808   
O64      O      0.126520000000     0.163410000000     0.471460000000    -0.253717   
O65      O      0.143700000000     0.098230000000     0.597060000000    -0.262674   
O66      O      0.902480000000     0.806510000000     0.593630000000    -0.259535   
O67      O      0.830940000000     0.091640000000     0.600050000000    -0.264002   
O68      O      0.899500000000     0.153110000000     0.418650000000    -0.263947   
O69      O      0.825760000000     0.773680000000     0.664390000000    -0.259889   
O70      O      0.817330000000     0.756670000000     0.431950000000    -0.261927   
O71      O      0.811310000000     0.236370000000     0.596810000000    -0.262364   
O72      O      0.754500000000     0.188870000000     0.422660000000    -0.262394   
O73      O      0.672260000000     0.597430000000     0.118320000000    -0.262239   
O74      O      0.255340000000     0.686540000000     0.899980000000    -0.263282   
O75      O      0.178420000000     0.757940000000     0.418000000000    -0.264296   
O76      O      0.395690000000     0.698220000000     0.079690000000    -0.262215   
O77      O      0.163280000000     0.205260000000     0.671320000000    -0.262575   
O78      O      0.280700000000     0.335510000000     0.159180000000    -0.262762   
O79      O      0.592670000000     0.336940000000     0.921110000000    -0.265944   
O80      O      0.333440000000     0.599460000000     0.081010000000    -0.2625     


