data_structure

_audit_creation_method RASPA-1.0
_audit_creation_date 2023-5-25
_audit_author_name 'Poobodin Mano'

_cell_length_a    35.9077
_cell_length_b    46.61
_cell_length_c    46.7863
_cell_angle_alpha 90
_cell_angle_beta  90
_cell_angle_gamma 90
_cell_volume      78304.3

_symmetry_cell_setting          triclinic
_symmetry_space_group_name_Hall 'P 1'
_symmetry_space_group_name_H-M  'P 1'
_symmetry_Int_Tables_number     1

_symmetry_equiv_pos_as_xyz 'x,y,z'

loop_
_atom_site_label
_atom_site_type_symbol
_atom_site_fract_x
_atom_site_fract_y
_atom_site_fract_z
_atom_site_charge
C1       C      0.039680000000     0.328020000000     0.893360000000     0.340191   
C2       C      0.962230000000     0.329230000000     0.816830000000     0.34013    
C3       C      0.038960000000     0.252220000000     0.815630000000     0.340224   
C4       C      0.962170000000     0.251470000000     0.892620000000     0.340396   
C5       C      0.213830000000     0.568090000000     0.000930000000     0.338861   
C6       C      0.291420000000     0.568930000000     0.077440000000     0.340272   
C7       C      0.290130000000     0.645490000000     0.000500000000     0.338601   
C8       C      0.213250000000     0.645160000000     0.077350000000     0.338454   
C9       C      0.459340000000     0.887800000000     0.893580000000     0.340166   
C10      C      0.458640000000     0.964990000000     0.817190000000     0.338403   
C11      C      0.536370000000     0.964520000000     0.893630000000     0.34049    
C12      C      0.535890000000     0.888100000000     0.816550000000     0.340374   
C13      C      0.790050000000     0.145000000000     0.133200000000     0.338385   
C14      C      0.711890000000     0.068640000000     0.133710000000     0.338636   
C15      C      0.789740000000     0.068150000000     0.209930000000     0.34036    
C16      C      0.713710000000     0.145670000000     0.210240000000     0.340204   
C17      C      0.465890000000     0.464260000000     0.317670000000     0.338529   
C18      C      0.542560000000     0.387280000000     0.316840000000     0.338558   
C19      C      0.543150000000     0.463400000000     0.394340000000     0.34044    
C20      C      0.465500000000     0.386830000000     0.393660000000     0.340312   
C21      C      0.789580000000     0.571200000000     0.712660000000     0.338786   
C22      C      0.711660000000     0.647550000000     0.712050000000     0.338557   
C23      C      0.789060000000     0.647530000000     0.635440000000     0.338528   
C24      C      0.712770000000     0.570210000000     0.635810000000     0.338504   
C25      C      0.039850000000     0.750750000000     0.317680000000     0.340423   
C26      C      0.962060000000     0.827110000000     0.316710000000     0.338439   
C27      C      0.962370000000     0.751010000000     0.394200000000     0.340472   
C28      C      0.038790000000     0.828250000000     0.393690000000     0.340073   
C29      C      0.211330000000     0.147440000000     0.574560000000     0.338647   
C30      C      0.287930000000     0.070360000000     0.575650000000     0.340253   
C31      C      0.211560000000     0.070050000000     0.498390000000     0.338689   
C32      C      0.289330000000     0.146530000000     0.498360000000     0.338725   
C33      C      0.052340000000     0.895670000000     0.431480000000    -0.029882   
C34      C      0.197400000000     0.003010000000     0.460270000000    -0.0284222  
C35      C      0.152430000000     0.051910000000     0.478080000000    -0.010911   
C36      C      0.214150000000     0.033190000000     0.460380000000    -0.0109257  
C37      C      0.140560000000     0.955690000000     0.472600000000    -0.0557388  
C38      C      0.108980000000     0.943130000000     0.419400000000    -0.0553106  
C39      C      0.140770000000     0.976580000000     0.450850000000     0.0625067  
C40      C      0.137640000000     0.021130000000     0.477390000000    -0.0285679  
C41      C      0.108770000000     0.922240000000     0.441150000000     0.062093   
C42      C      0.112240000000     0.877710000000     0.414610000000    -0.0560975  
C43      C      0.124660000000     0.928770000000     0.467690000000    -0.0523971  
C44      C      0.097860000000     0.846660000000     0.413970000000     0.0936125  
C45      C      0.035700000000     0.865460000000     0.431320000000    -0.00576806 
C46      C      0.124880000000     0.970050000000     0.424300000000    -0.053149   
C47      C      0.888620000000     0.730470000000     0.443360000000    -0.0298372  
C48      C      0.862660000000     0.668280000000     0.586310000000    -0.0285427  
C49      C      0.786340000000     0.685610000000     0.598640000000    -0.0108429  
C50      C      0.848120000000     0.667750000000     0.617050000000    -0.0109673  
C51      C      0.859260000000     0.672840000000     0.521120000000    -0.055714   
C52      C      0.891840000000     0.725870000000     0.508520000000    -0.0553733  
C53      C      0.859470000000     0.694710000000     0.541900000000     0.0625146  
C54      C      0.802840000000     0.685560000000     0.568490000000    -0.0285375  
C55      C      0.891630000000     0.704000000000     0.487730000000     0.0621544  
C56      C      0.948330000000     0.713150000000     0.461250000000    -0.0560162  
C57      C      0.875240000000     0.677540000000     0.494290000000    -0.0524706  
C58      C      0.965180000000     0.712920000000     0.431060000000     0.0934924  
C59      C      0.903220000000     0.731040000000     0.412650000000    -0.0059028  
C60      C      0.875860000000     0.721160000000     0.535350000000    -0.0530423  
C61      C      0.450930000000     0.319710000000     0.431760000000    -0.0299245  
C62      C      0.304620000000     0.213160000000     0.459810000000    -0.0286281  
C63      C      0.348920000000     0.164210000000     0.478450000000    -0.0108279  
C64      C      0.287660000000     0.183040000000     0.459980000000    -0.0108694  
C65      C      0.361570000000     0.260330000000     0.472410000000    -0.0557057  
C66      C      0.394190000000     0.272370000000     0.419460000000    -0.0552753  
C67      C      0.361590000000     0.239280000000     0.450800000000     0.0625751  
C68      C      0.363940000000     0.194920000000     0.477690000000    -0.0285143  
C69      C      0.394170000000     0.293420000000     0.441070000000     0.062061   
C70      C      0.391430000000     0.337770000000     0.414200000000    -0.0560596  
C71      C      0.377760000000     0.287140000000     0.467490000000    -0.0524296  
C72      C      0.406000000000     0.368760000000     0.413500000000     0.0936647  
C73      C      0.467760000000     0.349860000000     0.431560000000    -0.00576961 
C74      C      0.378010000000     0.245550000000     0.424380000000    -0.0531641  
C75      C      0.616370000000     0.483450000000     0.444310000000    -0.029732   
C76      C      0.640190000000     0.549090000000     0.585960000000    -0.0285606  
C77      C      0.715720000000     0.531100000000     0.600120000000    -0.0108391  
C78      C      0.653820000000     0.550260000000     0.616930000000    -0.0109277  
C79      C      0.645500000000     0.542730000000     0.520990000000    -0.0557564  
C80      C      0.611790000000     0.489920000000     0.509260000000    -0.0553233  
C81      C      0.644100000000     0.521440000000     0.542340000000     0.0625153  
C82      C      0.700130000000     0.530540000000     0.569680000000    -0.0285789  
C83      C      0.613190000000     0.511200000000     0.487910000000     0.0621421  
C84      C      0.556860000000     0.502430000000     0.460850000000    -0.0561751  
C85      C      0.630140000000     0.537550000000     0.494030000000    -0.0524185  
C86      C      0.540780000000     0.502240000000     0.430410000000     0.0937079  
C87      C      0.602520000000     0.482350000000     0.413410000000    -0.00588852 
C88      C      0.627160000000     0.495090000000     0.536210000000    -0.0530589  
C89      C      0.863090000000     0.018420000000     0.230580000000    -0.0298028  
C90      C      0.888490000000     0.876220000000     0.295570000000    -0.0286252  
C91      C      0.964410000000     0.863050000000     0.277820000000    -0.0109267  
C92      C      0.902800000000     0.845310000000     0.296680000000    -0.0109248  
C93      C      0.892400000000     0.941520000000     0.289490000000    -0.0557321  
C94      C      0.859100000000     0.953160000000     0.236700000000    -0.0552704  
C95      C      0.891610000000     0.920160000000     0.268190000000     0.0625259  
C96      C      0.948170000000     0.893390000000     0.277320000000    -0.0285341  
C97      C      0.859900000000     0.974520000000     0.257990000000     0.0620564  
C98      C      0.803420000000     0.001340000000     0.248740000000    -0.055824   
C99      C      0.876640000000     0.968440000000     0.284340000000    -0.0524657  
C100     C      0.786980000000     0.031790000000     0.248470000000     0.0935364  
C101     C      0.848920000000     0.049350000000     0.229460000000    -0.00589722 
C102     C      0.874870000000     0.926240000000     0.241850000000    -0.0531135  
C103     C      0.640680000000     0.195400000000     0.231460000000    -0.0297535  
C104     C      0.616000000000     0.338130000000     0.295450000000    -0.0285679  
C105     C      0.539720000000     0.350920000000     0.278360000000    -0.0108683  
C106     C      0.601560000000     0.369010000000     0.296430000000    -0.0109623  
C107     C      0.612330000000     0.272770000000     0.290000000000    -0.0557256  
C108     C      0.644650000000     0.260710000000     0.236940000000    -0.0553459  
C109     C      0.612620000000     0.293930000000     0.268500000000     0.0624768  
C110     C      0.556100000000     0.320620000000     0.277990000000    -0.028553   
C111     C      0.644340000000     0.239540000000     0.258430000000     0.0621877  
C112     C      0.700690000000     0.212720000000     0.248730000000    -0.0560798  
C113     C      0.628090000000     0.245830000000     0.284910000000    -0.0524847  
C114     C      0.717190000000     0.182290000000     0.248510000000     0.0935481  
C115     C      0.654900000000     0.164480000000     0.230430000000    -0.00594031 
C116     C      0.628890000000     0.287640000000     0.242030000000    -0.0530117  
C117     C      0.300780000000     0.031930000000     0.642620000000    -0.0298631  
C118     C      0.444490000000     0.003980000000     0.750880000000    -0.028603   
C119     C      0.399270000000     0.984810000000     0.798960000000    -0.0109705  
C120     C      0.460760000000     0.003780000000     0.781100000000    -0.0107241  
C121     C      0.388770000000     0.991190000000     0.703070000000    -0.0558015  
C122     C      0.356120000000     0.044260000000     0.690760000000    -0.0553952  
C123     C      0.388060000000     0.012800000000     0.724110000000     0.0625587  
C124     C      0.384930000000     0.985630000000     0.768170000000    -0.028632   
C125     C      0.356840000000     0.022640000000     0.669720000000     0.0621505  
C126     C      0.360700000000     0.049770000000     0.625680000000    -0.0561559  
C127     C      0.373250000000     0.996160000000     0.676130000000    -0.0525038  
C128     C      0.346990000000     0.050530000000     0.594570000000     0.0937725  
C129     C      0.284800000000     0.032190000000     0.612310000000    -0.00576078 
C130     C      0.371630000000     0.039280000000     0.717700000000    -0.053159   
C131     C      0.550090000000     0.820960000000     0.778540000000    -0.029903   
C132     C      0.696470000000     0.714630000000     0.749950000000    -0.0286569  
C133     C      0.652220000000     0.665350000000     0.732110000000    -0.0109204  
C134     C      0.713620000000     0.684570000000     0.749920000000    -0.0107535  
C135     C      0.639040000000     0.761480000000     0.737460000000    -0.0557301  
C136     C      0.607240000000     0.773870000000     0.790630000000    -0.0552969  
C137     C      0.639480000000     0.740610000000     0.759240000000     0.0626334  
C138     C      0.637030000000     0.696020000000     0.732720000000    -0.0285326  
C139     C      0.606800000000     0.794740000000     0.768850000000     0.0620793  
C140     C      0.609840000000     0.839320000000     0.795320000000    -0.0560958  
C141     C      0.622800000000     0.788290000000     0.742320000000    -0.0523765  
C142     C      0.595100000000     0.870270000000     0.795980000000     0.0935981  
C143     C      0.533130000000     0.851070000000     0.778720000000    -0.00574205 
C144     C      0.623470000000     0.747060000000     0.785760000000    -0.0531568  
C145     C      0.610270000000     0.984730000000     0.942830000000    -0.0298152  
C146     C      0.637610000000     0.048440000000     0.084950000000    -0.028572   
C147     C      0.713470000000     0.030030000000     0.097420000000    -0.0108724  
C148     C      0.652240000000     0.049170000000     0.115660000000    -0.0109442  
C149     C      0.640700000000     0.042930000000     0.019840000000    -0.0557196  
C150     C      0.606880000000     0.990210000000     0.007930000000    -0.0553936  
C151     C      0.639980000000     0.021350000000     0.040910000000     0.0625931  
C152     C      0.696900000000     0.029940000000     0.067290000000    -0.0285749  
C153     C      0.607610000000     0.011790000000     0.986860000000     0.0621921  
C154     C      0.550820000000     0.002920000000     0.960370000000    -0.0560786  
C155     C      0.624610000000     0.038100000000     0.993070000000    -0.0524907  
C156     C      0.534100000000     0.002980000000     0.930130000000     0.0938046  
C157     C      0.595790000000     0.983950000000     0.912090000000    -0.00596474 
C158     C      0.622960000000     0.995040000000     0.034700000000    -0.0531655  
C159     C      0.113620000000     0.730470000000     0.268470000000    -0.0297877  
C160     C      0.139740000000     0.665430000000     0.126830000000    -0.0285339  
C161     C      0.215270000000     0.683980000000     0.113400000000    -0.0109033  
C162     C      0.153820000000     0.664480000000     0.095970000000    -0.0109843  
C163     C      0.143960000000     0.671600000000     0.191860000000    -0.0558136  
C164     C      0.109670000000     0.724220000000     0.203480000000    -0.0553273  
C165     C      0.142690000000     0.692950000000     0.170570000000     0.0625143  
C166     C      0.199220000000     0.684290000000     0.143700000000    -0.0285317  
C167     C      0.110940000000     0.702870000000     0.224770000000     0.062094   
C168     C      0.054300000000     0.711460000000     0.251520000000    -0.056086   
C169     C      0.128180000000     0.676620000000     0.218710000000    -0.0524569  
C170     C      0.037890000000     0.711650000000     0.281860000000     0.0935138  
C171     C      0.099420000000     0.731510000000     0.299280000000    -0.00585063 
C172     C      0.125450000000     0.719200000000     0.176640000000    -0.0530302  
C173     C      0.446230000000     0.820970000000     0.932410000000    -0.029818   
C174     C      0.303110000000     0.712170000000     0.961470000000    -0.0286427  
C175     C      0.349060000000     0.664270000000     0.980450000000    -0.0108638  
C176     C      0.287140000000     0.681740000000     0.961930000000    -0.010803   
C177     C      0.358530000000     0.760560000000     0.973490000000    -0.0556798  
C178     C      0.390780000000     0.772650000000     0.920410000000    -0.0553029  
C179     C      0.359190000000     0.739300000000     0.952090000000     0.0625272  
C180     C      0.363060000000     0.695260000000     0.979390000000    -0.0285935  
C181     C      0.390130000000     0.793910000000     0.941820000000     0.0620631  
C182     C      0.386370000000     0.837930000000     0.914480000000    -0.0561042  
C183     C      0.373900000000     0.787600000000     0.968300000000    -0.0523961  
C184     C      0.400180000000     0.869130000000     0.913480000000     0.0936831  
C185     C      0.462290000000     0.851360000000     0.931950000000    -0.00586588 
C186     C      0.375400000000     0.745610000000     0.925600000000    -0.0531117  
C187     C      0.306270000000     0.530750000000     0.144280000000    -0.0298088  
C188     C      0.451760000000     0.503030000000     0.251210000000    -0.0286714  
C189     C      0.406680000000     0.484570000000     0.299650000000    -0.0109686  
C190     C      0.468310000000     0.502830000000     0.281350000000    -0.0107923  
C191     C      0.395460000000     0.490480000000     0.203760000000    -0.0556592  
C192     C      0.362730000000     0.543540000000     0.191550000000    -0.0553432  
C193     C      0.395170000000     0.512190000000     0.224710000000     0.0624962  
C194     C      0.392080000000     0.485320000000     0.268930000000    -0.0284942  
C195     C      0.363010000000     0.521830000000     0.170600000000     0.0621198  
C196     C      0.365610000000     0.548830000000     0.126420000000    -0.0561211  
C197     C      0.379490000000     0.495350000000     0.176960000000    -0.0524397  
C198     C      0.351120000000     0.549440000000     0.095510000000     0.0937037  
C199     C      0.289540000000     0.530820000000     0.114210000000    -0.00582965 
C200     C      0.378710000000     0.538660000000     0.218340000000    -0.0531141  
C201     C      0.112260000000     0.231900000000     0.765900000000    -0.0297581  
C202     C      0.137710000000     0.168300000000     0.623520000000    -0.0285083  
C203     C      0.213650000000     0.186220000000     0.610650000000    -0.01078    
C204     C      0.152060000000     0.167510000000     0.592740000000    -0.0110287  
C205     C      0.141510000000     0.173670000000     0.688630000000    -0.0557536  
C206     C      0.108280000000     0.226550000000     0.700810000000    -0.0553149  
C207     C      0.140790000000     0.195290000000     0.667600000000     0.0624462  
C208     C      0.197370000000     0.186410000000     0.640880000000    -0.0286258  
C209     C      0.109010000000     0.204930000000     0.721840000000     0.0620315  
C210     C      0.052530000000     0.214020000000     0.748640000000    -0.0560721  
C211     C      0.125720000000     0.178540000000     0.715490000000    -0.052459   
C212     C      0.036070000000     0.213970000000     0.778960000000     0.0934391  
C213     C      0.098080000000     0.232680000000     0.796720000000    -0.00591785 
C214     C      0.124070000000     0.221680000000     0.673950000000    -0.0530776  
C215     C      0.888760000000     0.230680000000     0.941960000000    -0.0298147  
C216     C      0.863440000000     0.165470000000     0.083640000000    -0.0285557  
C217     C      0.787750000000     0.183670000000     0.097010000000    -0.0109364  
C218     C      0.849350000000     0.164470000000     0.114490000000    -0.0109295  
C219     C      0.859260000000     0.171630000000     0.018600000000    -0.0557041  
C220     C      0.892930000000     0.224470000000     0.006950000000    -0.0553256  
C221     C      0.860310000000     0.192990000000     0.039880000000     0.0624721  
C222     C      0.803830000000     0.184030000000     0.066730000000    -0.0285254  
C223     C      0.891880000000     0.203120000000     0.985660000000     0.0621161  
C224     C      0.948360000000     0.212140000000     0.958850000000    -0.0561594  
C225     C      0.874960000000     0.176740000000     0.991740000000    -0.0525353  
C226     C      0.964710000000     0.212430000000     0.928490000000     0.0936092  
C227     C      0.902890000000     0.231820000000     0.911130000000    -0.00590515 
C228     C      0.877240000000     0.219350000000     0.033800000000    -0.0530751  
C229     C      0.948460000000     0.396570000000     0.778940000000    -0.0298164  
C230     C      0.803850000000     0.504590000000     0.751350000000    -0.028608   
C231     C      0.848920000000     0.553100000000     0.732670000000    -0.0109423  
C232     C      0.787410000000     0.534870000000     0.751210000000    -0.0108145  
C233     C      0.859940000000     0.456860000000     0.738590000000    -0.0557597  
C234     C      0.892510000000     0.444400000000     0.791470000000    -0.0552816  
C235     C      0.860390000000     0.477870000000     0.760230000000     0.0626     
C236     C      0.863440000000     0.522250000000     0.733400000000    -0.0284954  
C237     C      0.892070000000     0.423390000000     0.769830000000     0.0620822  
C238     C      0.888780000000     0.379020000000     0.796640000000    -0.0561595  
C239     C      0.875690000000     0.429880000000     0.743450000000    -0.0523337  
C240     C      0.902900000000     0.347890000000     0.797240000000     0.0936532  
C241     C      0.964840000000     0.366280000000     0.779020000000    -0.00583274 
C242     C      0.876770000000     0.471390000000     0.786620000000    -0.0531493  
C243     C      0.054260000000     0.394500000000     0.932440000000    -0.0298456  
C244     C      0.199800000000     0.501160000000     0.962310000000    -0.0286296  
C245     C      0.154720000000     0.549750000000     0.980810000000    -0.0109849  
C246     C      0.216500000000     0.531360000000     0.962800000000    -0.0108666  
C247     C      0.127060000000     0.468770000000     0.925940000000    -0.053134   
C248     C      0.127120000000     0.426760000000     0.968630000000    -0.0523886  
C249     C      0.143200000000     0.474830000000     0.952510000000     0.0625771  
C250     C      0.140060000000     0.518950000000     0.979740000000    -0.0284884  
C251     C      0.110980000000     0.420700000000     0.942060000000     0.0620849  
C252     C      0.113790000000     0.376650000000     0.914690000000    -0.0561538  
C253     C      0.111050000000     0.441960000000     0.920670000000    -0.0553022  
C254     C      0.099180000000     0.345680000000     0.913580000000     0.0936971  
C255     C      0.037430000000     0.364360000000     0.931860000000    -0.00587093 
C256     C      0.143130000000     0.453570000000     0.973910000000    -0.0557443  
Cd1      Cd     0.000750000000     0.290210000000     0.854610000000     0.505103   
Cd2      Cd     0.252160000000     0.606900000000     0.039040000000     0.506013   
Cd3      Cd     0.497530000000     0.926390000000     0.855170000000     0.505421   
Cd4      Cd     0.751350000000     0.106850000000     0.171750000000     0.505788   
Cd5      Cd     0.504350000000     0.425450000000     0.355660000000     0.505726   
Cd6      Cd     0.750760000000     0.609150000000     0.674000000000     0.506301   
Cd7      Cd     0.000740000000     0.789270000000     0.355590000000     0.505456   
Cd8      Cd     0.250000000000     0.108570000000     0.536710000000     0.506009   
H1       H      0.124860000000     0.985900000000     0.407380000000     0.0466948  
H2       H      0.038400000000     0.908330000000     0.448580000000     0.0373893  
H3       H      0.142760000000     0.877590000000     0.418840000000     0.0448183  
H4       H      0.144230000000     0.062780000000     0.457880000000     0.0425578  
H5       H      0.037440000000     0.856540000000     0.453330000000     0.0442092  
H6       H      0.211140000000     0.990340000000     0.443070000000     0.0369483  
H7       H      0.107230000000     0.021850000000     0.472840000000     0.0373612  
H8       H      0.244190000000     0.031660000000     0.465900000000     0.0475663  
H9       H      0.110970000000     0.835750000000     0.395340000000     0.0245385  
H10      H      0.096910000000     0.938630000000     0.398680000000     0.0429183  
H11      H      0.005740000000     0.866940000000     0.425520000000     0.0458677  
H12      H      0.152680000000     0.960180000000     0.493300000000     0.0435073  
H13      H      0.046460000000     0.906150000000     0.410570000000     0.0406707  
H14      H      0.139010000000     0.063570000000     0.496070000000     0.0492365  
H15      H      0.203410000000     0.992480000000     0.481130000000     0.0412962  
H16      H      0.141720000000     0.011180000000     0.498800000000     0.0418352  
H17      H      0.124710000000     0.912910000000     0.484610000000     0.0477052  
H18      H      0.107800000000     0.887550000000     0.393180000000     0.0462491  
H19      H      0.211990000000     0.042210000000     0.438440000000     0.0420826  
H20      H      0.097900000000     0.810960000000     0.439940000000     0.0944115  
H21      H      0.138130000000     0.830190000000     0.441030000000     0.0833573  
H22      H      0.876230000000     0.738170000000     0.551120000000     0.0467111  
H23      H      0.858170000000     0.726030000000     0.442750000000     0.037845   
H24      H      0.962040000000     0.696260000000     0.474400000000     0.0445707  
H25      H      0.788690000000     0.707660000000     0.607540000000     0.0416485  
H26      H      0.894630000000     0.710860000000     0.401830000000     0.0450441  
H27      H      0.893110000000     0.672770000000     0.586870000000     0.0372716  
H28      H      0.789080000000     0.702810000000     0.555860000000     0.0368886  
H29      H      0.861560000000     0.649700000000     0.628670000000     0.0492021  
H30      H      0.994970000000     0.719290000000     0.432950000000     0.0228887  
H31      H      0.904340000000     0.746500000000     0.504020000000     0.0431879  
H32      H      0.889930000000     0.749210000000     0.401110000000     0.0478595  
H33      H      0.846780000000     0.652200000000     0.525640000000     0.043302   
H34      H      0.892900000000     0.751970000000     0.453210000000     0.0414344  
H35      H      0.756250000000     0.680160000000     0.597290000000     0.0473051  
H36      H      0.858410000000     0.646760000000     0.576500000000     0.0416865  
H37      H      0.796640000000     0.664600000000     0.558100000000     0.041078   
H38      H      0.874890000000     0.660530000000     0.478530000000     0.0476839  
H39      H      0.954350000000     0.734260000000     0.471410000000     0.0459319  
H40      H      0.856490000000     0.688050000000     0.627760000000     0.0424017  
H41      H      0.973540000000     0.684270000000     0.398140000000     0.0927778  
H42      H      0.979790000000     0.669960000000     0.431240000000     0.0826489  
H43      H      0.378210000000     0.229580000000     0.407570000000     0.0467002  
H44      H      0.464510000000     0.307120000000     0.449080000000     0.0373962  
H45      H      0.360840000000     0.338030000000     0.418140000000     0.0448346  
H46      H      0.357380000000     0.153160000000     0.458410000000     0.0422883  
H47      H      0.465730000000     0.358930000000     0.453490000000     0.0442249  
H48      H      0.291270000000     0.225740000000     0.442370000000     0.0371971  
H49      H      0.394430000000     0.194040000000     0.473470000000     0.0372032  
H50      H      0.257530000000     0.184730000000     0.465160000000     0.0480165  
H51      H      0.393260000000     0.379600000000     0.394670000000     0.024584   
H52      H      0.406660000000     0.276670000000     0.398840000000     0.0429264  
H53      H      0.497800000000     0.348230000000     0.426040000000     0.0458908  
H54      H      0.349050000000     0.256040000000     0.493010000000     0.0435406  
H55      H      0.457090000000     0.309060000000     0.410990000000     0.0406876  
H56      H      0.361960000000     0.152620000000     0.496660000000     0.0489361  
H57      H      0.298310000000     0.223880000000     0.480520000000     0.0416002  
H58      H      0.359560000000     0.205050000000     0.498990000000     0.041781   
H59      H      0.377520000000     0.303120000000     0.484280000000     0.0477415  
H60      H      0.396150000000     0.327770000000     0.392880000000     0.0462736  
H61      H      0.290150000000     0.173830000000     0.438140000000     0.0420877  
H62      H      0.405760000000     0.404630000000     0.439240000000     0.0944253  
H63      H      0.365400000000     0.385550000000     0.440060000000     0.0834021  
H64      H      0.625860000000     0.478540000000     0.552430000000     0.0466971  
H65      H      0.646980000000     0.487230000000     0.444050000000     0.0378467  
H66      H      0.543420000000     0.519910000000     0.473380000000     0.044654   
H67      H      0.712590000000     0.509330000000     0.609560000000     0.0416104  
H68      H      0.612160000000     0.502020000000     0.402180000000     0.0453674  
H69      H      0.609640000000     0.545020000000     0.586100000000     0.0372755  
H70      H      0.713860000000     0.512770000000     0.557770000000     0.0368998  
H71      H      0.640450000000     0.568790000000     0.627820000000     0.0491886  
H72      H      0.510730000000     0.496520000000     0.432020000000     0.0230394  
H73      H      0.598820000000     0.469380000000     0.505110000000     0.0431325  
H74      H      0.615400000000     0.463580000000     0.402570000000     0.0479071  
H75      H      0.658400000000     0.563280000000     0.525160000000     0.0433452  
H76      H      0.611080000000     0.462310000000     0.454650000000     0.0412972  
H77      H      0.745960000000     0.536110000000     0.599170000000     0.0472861  
H78      H      0.645240000000     0.570280000000     0.575660000000     0.0417056  
H79      H      0.707130000000     0.551130000000     0.558860000000     0.0410906  
H80      H      0.631380000000     0.554120000000     0.477830000000     0.0477534  
H81      H      0.549890000000     0.481710000000     0.471430000000     0.0459472  
H82      H      0.644670000000     0.530360000000     0.628010000000     0.0423794  
H83      H      0.534190000000     0.530230000000     0.396700000000     0.0941605  
H84      H      0.527620000000     0.545470000000     0.429350000000     0.0830457  
H85      H      0.874060000000     0.910030000000     0.225280000000     0.0467078  
H86      H      0.893620000000     0.018870000000     0.234700000000     0.0378195  
H87      H      0.789790000000     0.988610000000     0.265960000000     0.0446196  
H88      H      0.961570000000     0.853600000000     0.256100000000     0.0414819  
H89      H      0.858030000000     0.060590000000     0.249230000000     0.0450214  
H90      H      0.857970000000     0.875700000000     0.291420000000     0.0372863  
H91      H      0.961720000000     0.905580000000     0.259700000000     0.0368391  
H92      H      0.889580000000     0.834140000000     0.315050000000     0.0491255  
H93      H      0.757080000000     0.029990000000     0.242400000000     0.0233881  
H94      H      0.846340000000     0.957300000000     0.216150000000     0.0431316  
H95      H      0.862060000000     0.060400000000     0.210980000000     0.0478497  
H96      H      0.905160000000     0.937380000000     0.310030000000     0.0432954  
H97      H      0.858330000000     0.008100000000     0.209430000000     0.0414328  
H98      H      0.994600000000     0.864370000000     0.282890000000     0.0471709  
H99      H      0.893200000000     0.886550000000     0.316730000000     0.0417172  
H100     H      0.954830000000     0.904270000000     0.297890000000     0.0410744  
H101     H      0.877440000000     0.984650000000     0.300900000000     0.0476618  
H102     H      0.796960000000     0.990750000000     0.227980000000     0.0459967  
H103     H      0.894000000000     0.834140000000     0.276790000000     0.0422507  
H104     H      0.779440000000     0.065480000000     0.276400000000     0.0929425  
H105     H      0.772940000000     0.032610000000     0.291370000000     0.0828632  
H106     H      0.629310000000     0.303710000000     0.225310000000     0.0466938  
H107     H      0.610240000000     0.194940000000     0.235970000000     0.0377712  
H108     H      0.714650000000     0.225610000000     0.265670000000     0.0447451  
H109     H      0.542130000000     0.360160000000     0.256520000000     0.0415769  
H110     H      0.646270000000     0.153410000000     0.250410000000     0.0450033  
H111     H      0.646440000000     0.338690000000     0.290990000000     0.0373112  
H112     H      0.542300000000     0.308220000000     0.260620000000     0.0368462  
H113     H      0.615040000000     0.380380000000     0.314570000000     0.0491929  
H114     H      0.746960000000     0.184070000000     0.242050000000     0.0233863  
H115     H      0.657030000000     0.256420000000     0.216290000000     0.0431921  
H116     H      0.641390000000     0.153240000000     0.212220000000     0.0478606  
H117     H      0.599940000000     0.277060000000     0.310640000000     0.0433076  
H118     H      0.644960000000     0.205540000000     0.210160000000     0.0414211  
H119     H      0.509630000000     0.349550000000     0.283760000000     0.0472177  
H120     H      0.611710000000     0.327980000000     0.316750000000     0.0417083  
H121     H      0.549860000000     0.309910000000     0.298720000000     0.041073   
H122     H      0.627660000000     0.229770000000     0.301630000000     0.0476653  
H123     H      0.706690000000     0.223140000000     0.227810000000     0.0461344  
H124     H      0.609970000000     0.380020000000     0.276360000000     0.0423632  
H125     H      0.725400000000     0.148840000000     0.276600000000     0.0929032  
H126     H      0.732130000000     0.181840000000     0.291230000000     0.0828528  
H127     H      0.370910000000     0.056100000000     0.733660000000     0.0464886  
H128     H      0.286930000000     0.014460000000     0.654880000000     0.0373896  
H129     H      0.391300000000     0.045900000000     0.625920000000     0.0448379  
H130     H      0.390390000000     0.004840000000     0.809930000000     0.041918   
H131     H      0.287180000000     0.010210000000     0.603240000000     0.0443517  
H132     H      0.457960000000     0.021610000000     0.738600000000     0.0369098  
H133     H      0.354390000000     0.989710000000     0.768660000000     0.0371265  
H134     H      0.490980000000     0.998770000000     0.779810000000     0.0470914  
H135     H      0.359960000000     0.069500000000     0.584050000000     0.024585   
H136     H      0.343640000000     0.064920000000     0.686350000000     0.0428678  
H137     H      0.254700000000     0.037650000000     0.613460000000     0.0459229  
H138     H      0.401330000000     0.970550000000     0.707460000000     0.0435118  
H139     H      0.294230000000     0.052730000000     0.653200000000     0.0405931  
H140     H      0.386140000000     0.966430000000     0.810260000000     0.0488005  
H141     H      0.451250000000     0.983270000000     0.740200000000     0.0413181  
H142     H      0.389730000000     0.964320000000     0.758060000000     0.0417687  
H143     H      0.374030000000     0.979360000000     0.660150000000     0.0477238  
H144     H      0.355590000000     0.071120000000     0.635630000000     0.046245   
H145     H      0.457810000000     0.025640000000     0.790340000000     0.0412833  
H146     H      0.348360000000     0.024820000000     0.558770000000     0.094722   
H147     H      0.388180000000     0.024030000000     0.578440000000     0.0834373  
H148     H      0.623630000000     0.731230000000     0.802700000000     0.0467517  
H149     H      0.536260000000     0.808220000000     0.761440000000     0.0374115  
H150     H      0.640340000000     0.839650000000     0.791040000000     0.0448822  
H151     H      0.644050000000     0.654440000000     0.752300000000     0.0425933  
H152     H      0.534770000000     0.860010000000     0.756720000000     0.0442802  
H153     H      0.709990000000     0.727420000000     0.767150000000     0.0372404  
H154     H      0.606610000000     0.695080000000     0.737190000000     0.0373499  
H155     H      0.743660000000     0.686330000000     0.744460000000     0.0480353  
H156     H      0.608160000000     0.881290000000     0.814570000000     0.0246352  
H157     H      0.595100000000     0.778300000000     0.811330000000     0.0429649  
H158     H      0.503190000000     0.849400000000     0.784530000000     0.0458768  
H159     H      0.651250000000     0.757060000000     0.716780000000     0.0435781  
H160     H      0.544350000000     0.810430000000     0.799440000000     0.0406932  
H161     H      0.639040000000     0.653570000000     0.714090000000     0.0492724  
H162     H      0.702420000000     0.725170000000     0.729080000000     0.0415876  
H163     H      0.641070000000     0.705970000000     0.711300000000     0.0418134  
H164     H      0.622690000000     0.804140000000     0.725400000000     0.0477392  
H165     H      0.605570000000     0.829460000000     0.816760000000     0.0463424  
H166     H      0.711520000000     0.675570000000     0.771880000000     0.0421797  
H167     H      0.594610000000     0.905950000000     0.769980000000     0.0944503  
H168     H      0.635060000000     0.887000000000     0.768810000000     0.0834008  
H169     H      0.622210000000     0.978250000000     0.050690000000     0.0466745  
H170     H      0.640810000000     0.988810000000     0.942240000000     0.0376882  
H171     H      0.537380000000     0.020110000000     0.973290000000     0.0446291  
H172     H      0.710530000000     0.008150000000     0.106630000000     0.0415419  
H173     H      0.604830000000     0.003900000000     0.901060000000     0.0451412  
H174     H      0.607050000000     0.044470000000     0.085610000000     0.0372452  
H175     H      0.710150000000     0.012290000000     0.054890000000     0.0368705  
H176     H      0.639340000000     0.067600000000     0.127040000000     0.0490995  
H177     H      0.504190000000     0.996940000000     0.932030000000     0.0229216  
H178     H      0.593930000000     0.969680000000     0.003690000000     0.0431287  
H179     H      0.608780000000     0.965500000000     0.900810000000     0.0476617  
H180     H      0.653680000000     0.063450000000     0.024080000000     0.0432829  
H181     H      0.605540000000     0.963400000000     0.952930000000     0.04134    
H182     H      0.743700000000     0.034970000000     0.095960000000     0.0472494  
H183     H      0.642430000000     0.069750000000     0.074840000000     0.0416592  
H184     H      0.703650000000     0.050650000000     0.056620000000     0.0411016  
H185     H      0.625380000000     0.054880000000     0.977070000000     0.0476788  
H186     H      0.544380000000     0.981990000000     0.970750000000     0.045869   
H187     H      0.643330000000     0.029160000000     0.126660000000     0.042274   
H188     H      0.526360000000     0.031340000000     0.896870000000     0.0939447  
H189     H      0.520230000000     0.046080000000     0.929800000000     0.0829582  
H190     H      0.124260000000     0.735810000000     0.160470000000     0.0466884  
H191     H      0.144220000000     0.726700000000     0.268930000000     0.0376549  
H192     H      0.041020000000     0.693960000000     0.238920000000     0.0447472  
H193     H      0.212090000000     0.705770000000     0.104040000000     0.0416488  
H194     H      0.108860000000     0.711780000000     0.310510000000     0.0447243  
H195     H      0.109150000000     0.669280000000     0.126450000000     0.037301   
H196     H      0.212580000000     0.702090000000     0.155810000000     0.0368095  
H197     H      0.140830000000     0.645900000000     0.084900000000     0.0492207  
H198     H      0.007850000000     0.717330000000     0.280070000000     0.023393   
H199     H      0.096500000000     0.744690000000     0.207600000000     0.0431725  
H200     H      0.112230000000     0.750220000000     0.310260000000     0.047542   
H201     H      0.157090000000     0.651130000000     0.187730000000     0.043279   
H202     H      0.108440000000     0.751630000000     0.258130000000     0.0413888  
H203     H      0.245540000000     0.679130000000     0.114600000000     0.047181   
H204     H      0.144890000000     0.644230000000     0.137080000000     0.0416614  
H205     H      0.206270000000     0.663700000000     0.154490000000     0.040967   
H206     H      0.129340000000     0.660010000000     0.234870000000     0.0475762  
H207     H      0.047380000000     0.732170000000     0.240900000000     0.0461751  
H208     H      0.144570000000     0.684350000000     0.084890000000     0.0424305  
H209     H      0.031020000000     0.683680000000     0.315560000000     0.0926983  
H210     H      0.024820000000     0.668410000000     0.282880000000     0.082818   
H211     H      0.376100000000     0.729480000000     0.908950000000     0.046697   
H212     H      0.460030000000     0.808770000000     0.949910000000     0.0373519  
H213     H      0.355770000000     0.837790000000     0.918330000000     0.0448612  
H214     H      0.357850000000     0.653210000000     0.960500000000     0.042359   
H215     H      0.459870000000     0.860640000000     0.953760000000     0.0442206  
H216     H      0.289300000000     0.724350000000     0.943960000000     0.037209   
H217     H      0.393550000000     0.694940000000     0.975120000000     0.0372557  
H218     H      0.256980000000     0.682900000000     0.967180000000     0.0479944  
H219     H      0.387270000000     0.879570000000     0.894490000000     0.0245626  
H220     H      0.403140000000     0.776960000000     0.899760000000     0.0429323  
H221     H      0.492400000000     0.850130000000     0.926570000000     0.0458444  
H222     H      0.346160000000     0.756240000000     0.994140000000     0.0435147  
H223     H      0.452780000000     0.810190000000     0.911770000000     0.0406475  
H224     H      0.362510000000     0.653110000000     0.998740000000     0.0489697  
H225     H      0.296520000000     0.722950000000     0.982100000000     0.0415556  
H226     H      0.358400000000     0.705490000000     0.000600000000     0.0418005  
H227     H      0.373200000000     0.803740000000     0.984940000000     0.0477073  
H228     H      0.391460000000     0.827780000000     0.893280000000     0.0462734  
H229     H      0.289830000000     0.672400000000     0.940160000000     0.0421099  
H230     H      0.398910000000     0.905280000000     0.938810000000     0.0944282  
H231     H      0.359020000000     0.885610000000     0.939740000000     0.0833279  
H232     H      0.378270000000     0.555540000000     0.234250000000     0.0465198  
H233     H      0.292860000000     0.513250000000     0.156790000000     0.0373773  
H234     H      0.396240000000     0.545110000000     0.126220000000     0.0448976  
H235     H      0.398240000000     0.504750000000     0.310530000000     0.0418988  
H236     H      0.291920000000     0.508830000000     0.105170000000     0.0443955  
H237     H      0.465380000000     0.520470000000     0.238760000000     0.0371137  
H238     H      0.361610000000     0.489670000000     0.269560000000     0.0371342  
H239     H      0.498440000000     0.497520000000     0.279920000000     0.0476628  
H240     H      0.363660000000     0.568440000000     0.084750000000     0.0246298  
H241     H      0.350170000000     0.564190000000     0.187190000000     0.0428887  
H242     H      0.259420000000     0.536110000000     0.115770000000     0.0459836  
H243     H      0.407980000000     0.469820000000     0.208130000000     0.0435396  
H244     H      0.299800000000     0.551550000000     0.154880000000     0.0406545  
H245     H      0.393360000000     0.466380000000     0.311130000000     0.0488881  
H246     H      0.458110000000     0.482200000000     0.240610000000     0.0415781  
H247     H      0.396480000000     0.463900000000     0.258920000000     0.0418307  
H248     H      0.379910000000     0.478470000000     0.161070000000     0.0477764  
H249     H      0.360570000000     0.570190000000     0.136380000000     0.0462578  
H250     H      0.465810000000     0.524780000000     0.290480000000     0.0414046  
H251     H      0.351820000000     0.523630000000     0.059760000000     0.094639   
H252     H      0.392130000000     0.523090000000     0.078850000000     0.0834756  
H253     H      0.123320000000     0.238500000000     0.657990000000     0.0466659  
H254     H      0.142780000000     0.227690000000     0.766310000000     0.0376049  
H255     H      0.038840000000     0.196920000000     0.735750000000     0.0445499  
H256     H      0.210810000000     0.208120000000     0.601460000000     0.0415416  
H257     H      0.107090000000     0.212680000000     0.807670000000     0.0447446  
H258     H      0.107190000000     0.172490000000     0.623020000000     0.0372366  
H259     H      0.210920000000     0.203970000000     0.653210000000     0.0368172  
H260     H      0.138830000000     0.149200000000     0.581390000000     0.0492044  
H261     H      0.006190000000     0.220160000000     0.777240000000     0.022859   
H262     H      0.095550000000     0.247140000000     0.705160000000     0.0430909  
H263     H      0.111290000000     0.251060000000     0.807960000000     0.0475224  
H264     H      0.154260000000     0.153090000000     0.684280000000     0.0432286  
H265     H      0.107600000000     0.253270000000     0.755870000000     0.0412898  
H266     H      0.243850000000     0.181130000000     0.611940000000     0.0471525  
H267     H      0.142370000000     0.146950000000     0.633590000000     0.0416833  
H268     H      0.204010000000     0.165660000000     0.651510000000     0.0410547  
H269     H      0.126470000000     0.161720000000     0.731450000000     0.0475362  
H270     H      0.046160000000     0.234990000000     0.738340000000     0.0458919  
H271     H      0.143330000000     0.187600000000     0.581820000000     0.0423542  
H272     H      0.028380000000     0.185560000000     0.812190000000     0.0927114  
H273     H      0.021840000000     0.170940000000     0.779260000000     0.082613   
H274     H      0.878240000000     0.235970000000     0.049960000000     0.0466967  
H275     H      0.858210000000     0.226670000000     0.941540000000     0.0376941  
H276     H      0.961880000000     0.194750000000     0.971450000000     0.0445908  
H277     H      0.790730000000     0.205490000000     0.106350000000     0.0415884  
H278     H      0.893670000000     0.212020000000     0.899920000000     0.0447538  
H279     H      0.894000000000     0.169470000000     0.084020000000     0.0372372  
H280     H      0.790330000000     0.201750000000     0.054590000000     0.0368327  
H281     H      0.862460000000     0.145930000000     0.125560000000     0.0490898  
H282     H      0.994670000000     0.218350000000     0.930250000000     0.0228432  
H283     H      0.905840000000     0.245040000000     0.002820000000     0.0431388  
H284     H      0.889820000000     0.250420000000     0.900170000000     0.0475435  
H285     H      0.846360000000     0.151060000000     0.022740000000     0.0432375  
H286     H      0.893680000000     0.251880000000     0.952280000000     0.0413714  
H287     H      0.757530000000     0.178650000000     0.095790000000     0.047234   
H288     H      0.858470000000     0.144250000000     0.073380000000     0.0416009  
H289     H      0.796970000000     0.163390000000     0.055950000000     0.0410057  
H290     H      0.873960000000     0.160130000000     0.975580000000     0.0476089  
H291     H      0.955020000000     0.232910000000     0.969450000000     0.0459753  
H292     H      0.858460000000     0.184370000000     0.125580000000     0.0423303  
H293     H      0.971890000000     0.184500000000     0.894810000000     0.0925628  
H294     H      0.978340000000     0.169300000000     0.927490000000     0.0826211  
H295     H      0.877300000000     0.487330000000     0.803450000000     0.0467536  
H296     H      0.962150000000     0.409080000000     0.761600000000     0.0373718  
H297     H      0.858180000000     0.379030000000     0.792790000000     0.0448868  
H298     H      0.857560000000     0.564040000000     0.752720000000     0.0425512  
H299     H      0.962560000000     0.357280000000     0.757080000000     0.0442321  
H300     H      0.790330000000     0.492140000000     0.768810000000     0.0372116  
H301     H      0.893950000000     0.522830000000     0.737600000000     0.0373522  
H302     H      0.757230000000     0.533500000000     0.746110000000     0.0480489  
H303     H      0.890090000000     0.337140000000     0.816090000000     0.0245612  
H304     H      0.904970000000     0.439950000000     0.812060000000     0.0429385  
H305     H      0.994930000000     0.367630000000     0.784450000000     0.0458503  
H306     H      0.847440000000     0.461300000000     0.718020000000     0.0436155  
H307     H      0.954880000000     0.407120000000     0.799720000000     0.0406369  
H308     H      0.862120000000     0.564580000000     0.714470000000     0.0493098  
H309     H      0.797290000000     0.493940000000     0.730650000000     0.0416587  
H310     H      0.858860000000     0.512180000000     0.712100000000     0.0419061  
H311     H      0.875140000000     0.413920000000     0.726630000000     0.0477245  
H312     H      0.893770000000     0.388930000000     0.817960000000     0.0462894  
H313     H      0.790160000000     0.544060000000     0.773050000000     0.0421083  
H314     H      0.901970000000     0.312070000000     0.771440000000     0.0944418  
H315     H      0.861890000000     0.331510000000     0.770770000000     0.0833898  
H316     H      0.155400000000     0.457700000000     0.994630000000     0.0435048  
H317     H      0.040670000000     0.406870000000     0.949910000000     0.0373895  
H318     H      0.144360000000     0.376320000000     0.918650000000     0.0448524  
H319     H      0.146360000000     0.560890000000     0.960800000000     0.0426898  
H320     H      0.039500000000     0.355000000000     0.953660000000     0.0442217  
H321     H      0.213550000000     0.488740000000     0.944940000000     0.0370564  
H322     H      0.109620000000     0.519650000000     0.975260000000     0.0373355  
H323     H      0.246540000000     0.529800000000     0.968350000000     0.0475109  
H324     H      0.111950000000     0.335070000000     0.894630000000     0.0245455  
H325     H      0.127260000000     0.410620000000     0.985280000000     0.0477023  
H326     H      0.007390000000     0.366050000000     0.926390000000     0.0458566  
H327     H      0.126910000000     0.484910000000     0.909290000000     0.0467337  
H328     H      0.048110000000     0.405410000000     0.911790000000     0.0406866  
H329     H      0.141350000000     0.561110000000     0.999010000000     0.0492983  
H330     H      0.205850000000     0.490370000000     0.983030000000     0.0412891  
H331     H      0.144250000000     0.508700000000     0.001000000000     0.0417458  
H332     H      0.098750000000     0.437850000000     0.899950000000     0.0429353  
H333     H      0.109100000000     0.386910000000     0.893490000000     0.0462902  
H334     H      0.214390000000     0.540650000000     0.940970000000     0.0421622  
H335     H      0.099340000000     0.309480000000     0.938860000000     0.094327   
H336     H      0.139720000000     0.328520000000     0.939970000000     0.0832807  
N1       N      0.056790000000     0.846650000000     0.411790000000    -0.165697   
N2       N      0.092690000000     0.894170000000     0.436920000000    -0.106512   
N3       N      0.157000000000     0.004610000000     0.455040000000    -0.113543   
N4       N      0.193390000000     0.051880000000     0.480190000000    -0.154036   
N5       N      0.109090000000     0.831680000000     0.440080000000    -0.190066   
N6       N      0.944250000000     0.732850000000     0.412460000000    -0.165692   
N7       N      0.907910000000     0.707980000000     0.459800000000    -0.106514   
N8       N      0.843270000000     0.690710000000     0.569860000000    -0.113621   
N9       N      0.807150000000     0.665730000000     0.617220000000    -0.154134   
N10      N      0.963380000000     0.683940000000     0.419090000000    -0.189806   
N11      N      0.447100000000     0.368620000000     0.411710000000    -0.165749   
N12      N      0.410500000000     0.321400000000     0.436800000000    -0.106495   
N13      N      0.345100000000     0.211350000000     0.455020000000    -0.113586   
N14      N      0.307930000000     0.164430000000     0.480160000000    -0.154083   
N15      N      0.394440000000     0.383950000000     0.439400000000    -0.190085   
N16      N      0.561460000000     0.481450000000     0.412600000000    -0.165568   
N17      N      0.597480000000     0.506750000000     0.459850000000    -0.106452   
N18      N      0.659550000000     0.525970000000     0.570470000000    -0.113612   
N19      N      0.694810000000     0.551750000000     0.617780000000    -0.154156   
N20      N      0.543840000000     0.530880000000     0.417780000000    -0.18991    
N21      N      0.807870000000     0.049890000000     0.228080000000    -0.165641   
N22      N      0.843930000000     0.002590000000     0.253510000000    -0.106483   
N23      N      0.907640000000     0.892110000000     0.272650000000    -0.113628   
N24      N      0.943790000000     0.844990000000     0.298290000000    -0.154209   
N25      N      0.789320000000     0.044380000000     0.277070000000    -0.189852   
N26      N      0.695910000000     0.164000000000     0.228520000000    -0.165582   
N27      N      0.660280000000     0.211460000000     0.254010000000    -0.106531   
N28      N      0.596540000000     0.321980000000     0.272880000000    -0.113611   
N29      N      0.560600000000     0.369230000000     0.298440000000    -0.154138   
N30      N      0.715480000000     0.169930000000     0.277230000000    -0.18987    
N31      N      0.305890000000     0.052230000000     0.594040000000    -0.165712   
N32      N      0.341270000000     0.026980000000     0.641600000000    -0.106503   
N33      N      0.403930000000     0.008560000000     0.752150000000    -0.11362    
N34      N      0.440270000000     0.983310000000     0.799260000000    -0.154355   
N35      N      0.359090000000     0.024620000000     0.579550000000    -0.190108   
N36      N      0.554040000000     0.869980000000     0.798260000000    -0.165725   
N37      N      0.590420000000     0.822710000000     0.773060000000    -0.106502   
N38      N      0.656080000000     0.712710000000     0.755100000000    -0.113564   
N39      N      0.693190000000     0.665680000000     0.730120000000    -0.153925   
N40      N      0.606040000000     0.885310000000     0.769830000000    -0.190059   
N41      N      0.554740000000     0.982620000000     0.911800000000    -0.165668   
N42      N      0.591350000000     0.007630000000     0.958940000000    -0.106471   
N43      N      0.656340000000     0.025470000000     0.068790000000    -0.113633   
N44      N      0.693260000000     0.050510000000     0.115760000000    -0.154268   
N45      N      0.536440000000     0.031800000000     0.917840000000    -0.189926   
N46      N      0.058350000000     0.732480000000     0.299770000000    -0.165751   
N47      N      0.094920000000     0.707190000000     0.252750000000    -0.106521   
N48      N      0.158620000000     0.688610000000     0.142570000000    -0.113617   
N49      N      0.194840000000     0.663300000000     0.095440000000    -0.154119   
N50      N      0.040890000000     0.683030000000     0.294530000000    -0.189852   
N51      N      0.441280000000     0.869570000000     0.911810000000    -0.16573    
N52      N      0.405740000000     0.822090000000     0.937310000000    -0.106523   
N53      N      0.343620000000     0.711100000000     0.956600000000    -0.113553   
N54      N      0.308080000000     0.663690000000     0.982200000000    -0.154033   
N55      N      0.388110000000     0.884440000000     0.939170000000    -0.190055   
N56      N      0.310000000000     0.550920000000     0.095580000000    -0.165691   
N57      N      0.346760000000     0.525990000000     0.142690000000    -0.106521   
N58      N      0.411280000000     0.507970000000     0.252670000000    -0.113638   
N59      N      0.447660000000     0.482670000000     0.299740000000    -0.154205   
N60      N      0.363070000000     0.523540000000     0.080390000000    -0.19001    
N61      N      0.057040000000     0.234170000000     0.797240000000    -0.165719   
N62      N      0.093020000000     0.209120000000     0.749850000000    -0.10652    
N63      N      0.156840000000     0.191120000000     0.639610000000    -0.11362    
N64      N      0.193060000000     0.165850000000     0.592460000000    -0.154177   
N65      N      0.038280000000     0.185100000000     0.791170000000    -0.189849   
N66      N      0.943940000000     0.233090000000     0.910600000000    -0.165757   
N67      N      0.907790000000     0.207550000000     0.957670000000    -0.106529   
N68      N      0.844400000000     0.188560000000     0.067880000000    -0.113611   
N69      N      0.808340000000     0.163120000000     0.115020000000    -0.154156   
N70      N      0.962060000000     0.183790000000     0.915850000000    -0.189865   
N71      N      0.944010000000     0.347660000000     0.798900000000    -0.165727   
N72      N      0.907990000000     0.395260000000     0.774000000000    -0.10651    
N73      N      0.844370000000     0.505980000000     0.756080000000    -0.113568   
N74      N      0.807930000000     0.553250000000     0.730980000000    -0.15394    
N75      N      0.890960000000     0.332850000000     0.771350000000    -0.190053   
N76      N      0.058080000000     0.345880000000     0.911740000000    -0.165782   
N77      N      0.094690000000     0.392760000000     0.937470000000    -0.106514   
N78      N      0.159400000000     0.502800000000     0.957120000000    -0.113558   
N79      N      0.195700000000     0.549830000000     0.982800000000    -0.154066   
N80      N      0.110670000000     0.330150000000     0.939290000000    -0.190052   
O1       O      0.944890000000     0.312240000000     0.833220000000    -0.250372   
O2       O      0.997350000000     0.252190000000     0.891120000000    -0.260105   
O3       O      0.056840000000     0.311200000000     0.876690000000    -0.250416   
O4       O      0.056430000000     0.268970000000     0.832190000000    -0.249144   
O5       O      0.003790000000     0.253050000000     0.817210000000    -0.260106   
O6       O      0.004480000000     0.327230000000     0.892120000000    -0.258217   
O7       O      0.997420000000     0.328050000000     0.817890000000    -0.258143   
O8       O      0.944860000000     0.268660000000     0.876430000000    -0.249299   
O9       O      0.256220000000     0.569830000000     0.076490000000    -0.257985   
O10      O      0.248440000000     0.644610000000     0.075870000000    -0.257113   
O11      O      0.196420000000     0.584940000000     0.017400000000    -0.247683   
O12      O      0.307710000000     0.629060000000     0.017300000000    -0.247916   
O13      O      0.254960000000     0.643990000000     0.001550000000    -0.256162   
O14      O      0.249020000000     0.569250000000     0.002110000000    -0.256922   
O15      O      0.308430000000     0.585570000000     0.060500000000    -0.25022    
O16      O      0.196100000000     0.628000000000     0.061020000000    -0.247635   
O17      O      0.441450000000     0.948020000000     0.833690000000    -0.248362   
O18      O      0.500720000000     0.888800000000     0.818170000000    -0.258164   
O19      O      0.441850000000     0.904450000000     0.876930000000    -0.250271   
O20      O      0.553560000000     0.947610000000     0.877070000000    -0.248952   
O21      O      0.501170000000     0.963810000000     0.892280000000    -0.259477   
O22      O      0.494510000000     0.889120000000     0.892460000000    -0.258249   
O23      O      0.493840000000     0.964090000000     0.818350000000    -0.257665   
O24      O      0.553270000000     0.905230000000     0.832750000000    -0.250464   
O25      O      0.747100000000     0.069350000000     0.134750000000    -0.257194   
O26      O      0.748870000000     0.144150000000     0.209030000000    -0.259185   
O27      O      0.807320000000     0.128020000000     0.149650000000    -0.247775   
O28      O      0.754560000000     0.069730000000     0.209180000000    -0.259204   
O29      O      0.807130000000     0.084580000000     0.193030000000    -0.248799   
O30      O      0.754870000000     0.144310000000     0.134670000000    -0.257181   
O31      O      0.694960000000     0.085610000000     0.150360000000    -0.247971   
O32      O      0.695990000000     0.129120000000     0.193650000000    -0.248681   
O33      O      0.507380000000     0.388370000000     0.318180000000    -0.257133   
O34      O      0.500690000000     0.387750000000     0.392520000000    -0.258169   
O35      O      0.448550000000     0.447490000000     0.334270000000    -0.248225   
O36      O      0.507980000000     0.463040000000     0.392580000000    -0.259541   
O37      O      0.560380000000     0.446210000000     0.378090000000    -0.248589   
O38      O      0.501080000000     0.463080000000     0.318720000000    -0.256792   
O39      O      0.560050000000     0.403940000000     0.333460000000    -0.247795   
O40      O      0.448330000000     0.403880000000     0.377240000000    -0.250466   
O41      O      0.694570000000     0.630390000000     0.695680000000    -0.247466   
O42      O      0.695200000000     0.587350000000     0.651900000000    -0.247663   
O43      O      0.754390000000     0.572220000000     0.711600000000    -0.256189   
O44      O      0.753880000000     0.646250000000     0.636530000000    -0.257032   
O45      O      0.806500000000     0.631060000000     0.652280000000    -0.247739   
O46      O      0.806800000000     0.587830000000     0.695840000000    -0.247503   
O47      O      0.746860000000     0.646850000000     0.710810000000    -0.256104   
O48      O      0.747930000000     0.571090000000     0.637480000000    -0.257028   
O49      O      0.944770000000     0.810680000000     0.333690000000    -0.247763   
O50      O      0.003620000000     0.827240000000     0.392190000000    -0.258111   
O51      O      0.004660000000     0.751200000000     0.319160000000    -0.259288   
O52      O      0.997550000000     0.752160000000     0.393010000000    -0.260095   
O53      O      0.944950000000     0.767530000000     0.377400000000    -0.248854   
O54      O      0.056910000000     0.768110000000     0.333850000000    -0.249187   
O55      O      0.997250000000     0.825930000000     0.317720000000    -0.257246   
O56      O      0.056320000000     0.811120000000     0.377570000000    -0.25044    
O57      O      0.252760000000     0.071430000000     0.574170000000    -0.25797    
O58      O      0.254120000000     0.145740000000     0.499370000000    -0.256187   
O59      O      0.194050000000     0.130500000000     0.558090000000    -0.247752   
O60      O      0.194180000000     0.087030000000     0.514770000000    -0.247579   
O61      O      0.246740000000     0.070980000000     0.499760000000    -0.257012   
O62      O      0.246520000000     0.146410000000     0.573420000000    -0.25719    
O63      O      0.305510000000     0.086940000000     0.559010000000    -0.250335   
O64      O      0.306310000000     0.129680000000     0.515110000000    -0.24794    


