data_structure

_audit_creation_method RASPA-1.0
_audit_creation_date 2023-6-5
_audit_author_name 'Poobodin Mano'

_cell_length_a    57.1216
_cell_length_b    56.9117
_cell_length_c    30.2113
_cell_angle_alpha 90.0382
_cell_angle_beta  89.9055
_cell_angle_gamma 90
_cell_volume      98213.4

_symmetry_cell_setting          triclinic
_symmetry_space_group_name_Hall 'P 1'
_symmetry_space_group_name_H-M  'P 1'
_symmetry_Int_Tables_number     1

_symmetry_equiv_pos_as_xyz 'x,y,z'

loop_
_atom_site_label
_atom_site_type_symbol
_atom_site_fract_x
_atom_site_fract_y
_atom_site_fract_z
_atom_site_charge
C1       C      0.384820000000     0.316810000000     0.985210000000     0.337705   
C2       C      0.311050000000     0.311770000000     0.062360000000     0.337109   
C3       C      0.339140000000     0.379630000000     0.981240000000     0.339223   
C4       C      0.308600000000     0.306720000000     0.916670000000     0.3382     
C5       C      0.330710000000     0.624970000000     0.986990000000     0.337944   
C6       C      0.312610000000     0.698400000000     0.069230000000     0.33897    
C7       C      0.386360000000     0.678260000000     0.999490000000     0.337339   
C8       C      0.312670000000     0.698790000000     0.923860000000     0.337222   
C9       C      0.627240000000     0.316260000000     0.996100000000     0.338926   
C10      C      0.702160000000     0.309400000000     0.941260000000     0.339433   
C11      C      0.668750000000     0.384210000000     0.004320000000     0.339032   
C12      C      0.698490000000     0.321480000000     0.087960000000     0.33741    
C13      C      0.674630000000     0.630110000000     0.992600000000     0.338789   
C14      C      0.697890000000     0.691210000000     0.900560000000     0.336619   
C15      C      0.628950000000     0.694920000000     0.998000000000     0.336484   
C16      C      0.706190000000     0.707690000000     0.045730000000     0.340424   
C17      C      0.807020000000     0.210230000000     0.568380000000     0.340414   
C18      C      0.837710000000     0.134430000000     0.505390000000     0.339567   
C19      C      0.812280000000     0.200200000000     0.423130000000     0.337025   
C20      C      0.883390000000     0.197880000000     0.518310000000     0.337511   
C21      C      0.880580000000     0.831760000000     0.491070000000     0.337277   
C22      C      0.806050000000     0.812080000000     0.555720000000     0.338632   
C23      C      0.826620000000     0.888880000000     0.494140000000     0.339642   
C24      C      0.809970000000     0.818650000000     0.408240000000     0.339402   
C25      C      0.198750000000     0.806380000000     0.427020000000     0.338896   
C26      C      0.125010000000     0.822700000000     0.495430000000     0.338278   
C27      C      0.198570000000     0.812290000000     0.574550000000     0.338673   
C28      C      0.177910000000     0.881700000000     0.497420000000     0.338765   
C29      C      0.193120000000     0.199130000000     0.408030000000     0.337801   
C30      C      0.185640000000     0.126470000000     0.482910000000     0.338114   
C31      C      0.194640000000     0.201880000000     0.557360000000     0.338262   
C32      C      0.123550000000     0.173090000000     0.489130000000     0.340239   
C33      C      0.182670000000     0.943010000000     0.453380000000    -0.0280133  
C34      C      0.192080000000     0.066190000000     0.524450000000    -0.0284538  
C35      C      0.191550000000     0.090250000000     0.439280000000    -0.0108724  
C36      C      0.201180000000     0.091420000000     0.521030000000    -0.010968   
C37      C      0.209200000000     0.013110000000     0.478700000000    -0.0522552  
C38      C      0.164330000000     0.996310000000     0.498110000000    -0.0519429  
C39      C      0.190890000000     0.029070000000     0.485500000000     0.0632122  
C40      C      0.182790000000     0.065110000000     0.445860000000    -0.0284864  
C41      C      0.182640000000     0.980340000000     0.491290000000     0.0626939  
C42      C      0.190690000000     0.944640000000     0.531590000000    -0.0333954  
C43      C      0.205200000000     0.988950000000     0.481560000000    -0.0546927  
C44      C      0.182270000000     0.919260000000     0.539260000000     0.0111854  
C45      C      0.172860000000     0.918130000000     0.456050000000    -0.0116127  
C46      C      0.168340000000     0.020490000000     0.495280000000    -0.0551282  
C47      C      0.198820000000     0.907970000000     0.570220000000     0.0636749  
C48      C      0.941990000000     0.818950000000     0.453410000000    -0.027928   
C49      C      0.063370000000     0.823400000000     0.532500000000    -0.0282338  
C50      C      0.089770000000     0.812660000000     0.452260000000    -0.0114677  
C51      C      0.088530000000     0.814450000000     0.536230000000    -0.0111328  
C52      C      0.012100000000     0.799130000000     0.493630000000    -0.0520797  
C53      C      0.994200000000     0.844780000000     0.488120000000    -0.051692   
C54      C      0.027540000000     0.818200000000     0.491250000000     0.0634903  
C55      C      0.064510000000     0.821610000000     0.452170000000    -0.0280125  
C56      C      0.978750000000     0.825700000000     0.490600000000     0.0627591  
C57      C      0.942860000000     0.823090000000     0.532650000000    -0.0331935  
C58      C      0.987920000000     0.802760000000     0.493360000000    -0.0544503  
C59      C      0.917390000000     0.831880000000     0.534960000000     0.0109429  
C60      C      0.917070000000     0.828360000000     0.449760000000    -0.0114673  
C61      C      0.018410000000     0.841140000000     0.488470000000    -0.0549861  
C62      C      0.905710000000     0.819700000000     0.572120000000     0.0652425  
C63      C      0.835970000000     0.951370000000     0.462930000000    -0.0275862  
C64      C      0.828020000000     0.073060000000     0.542480000000    -0.0282974  
C65      C      0.848900000000     0.097750000000     0.467550000000    -0.0105915  
C66      C      0.837620000000     0.097900000000     0.549080000000    -0.0109343  
C67      C      0.853920000000     0.020070000000     0.514180000000    -0.0518713  
C68      C      0.809250000000     0.003820000000     0.491960000000    -0.0514219  
C69      C      0.836100000000     0.036270000000     0.505270000000     0.0634289  
C70      C      0.838770000000     0.072900000000     0.464750000000    -0.0284984  
C71      C      0.827110000000     0.987610000000     0.500750000000     0.0631576  
C72      C      0.824950000000     0.950690000000     0.540160000000    -0.0334134  
C73      C      0.849560000000     0.995950000000     0.511980000000    -0.0546142  
C74      C      0.816120000000     0.925150000000     0.537210000000     0.0109245  
C75      C      0.826950000000     0.926500000000     0.455210000000    -0.0125094  
C76      C      0.813630000000     0.027970000000     0.494170000000    -0.0546279  
C77      C      0.822670000000     0.913170000000     0.578780000000     0.0649939  
C78      C      0.943270000000     0.204220000000     0.481580000000    -0.0284318  
C79      C      0.064520000000     0.173920000000     0.538560000000    -0.0286147  
C80      C      0.085580000000     0.175210000000     0.450570000000    -0.0103866  
C81      C      0.088010000000     0.161710000000     0.530420000000    -0.0104021  
C82      C      0.008470000000     0.165940000000     0.496540000000    -0.0521266  
C83      C      0.998410000000     0.211440000000     0.526010000000    -0.0518521  
C84      C      0.026840000000     0.181580000000     0.505000000000     0.0633049  
C85      C      0.062240000000     0.186910000000     0.462020000000    -0.0286015  
C86      C      0.980030000000     0.195800000000     0.517470000000     0.0630716  
C87      C      0.943780000000     0.190170000000     0.557820000000    -0.0342474  
C88      C      0.985240000000     0.172910000000     0.502630000000    -0.0547718  
C89      C      0.919560000000     0.201010000000     0.566870000000     0.0114912  
C90      C      0.919400000000     0.215730000000     0.488580000000    -0.0122259  
C91      C      0.021660000000     0.204470000000     0.519830000000    -0.0548647  
C92      C      0.907590000000     0.186770000000     0.600880000000     0.0627921  
C93      C      0.796000000000     0.767710000000     0.645260000000    -0.0272742  
C94      C      0.705740000000     0.723690000000     0.797240000000    -0.0280915  
C95      C      0.732170000000     0.690230000000     0.850460000000    -0.0108806  
C96      C      0.692860000000     0.704630000000     0.823380000000    -0.0116995  
C97      C      0.744990000000     0.723350000000     0.710640000000    -0.0519117  
C98      C      0.758020000000     0.768820000000     0.735670000000    -0.0513525  
C99      C      0.740560000000     0.731020000000     0.753880000000     0.0634456  
C100     C      0.743650000000     0.709760000000     0.823180000000    -0.0286625  
C101     C      0.762490000000     0.761140000000     0.692420000000     0.0633117  
C102     C      0.758330000000     0.783240000000     0.624660000000    -0.0331861  
C103     C      0.755810000000     0.738220000000     0.680040000000    -0.0545235  
C104     C      0.769200000000     0.803150000000     0.596840000000     0.0110076  
C105     C      0.809280000000     0.786960000000     0.620730000000    -0.0123886  
C106     C      0.747110000000     0.753970000000     0.766240000000    -0.0545093  
C107     C      0.755460000000     0.805220000000     0.555610000000     0.0640936  
C108     C      0.799770000000     0.777050000000     0.313910000000    -0.0277402  
C109     C      0.722100000000     0.754250000000     0.125110000000    -0.0285684  
C110     C      0.741140000000     0.709730000000     0.093490000000    -0.0106469  
C111     C      0.716850000000     0.746100000000     0.077890000000    -0.010752   
C112     C      0.773060000000     0.769110000000     0.180620000000    -0.0519663  
C113     C      0.748400000000     0.762110000000     0.259570000000    -0.0514766  
C114     C      0.752690000000     0.755440000000     0.180380000000     0.0633595  
C115     C      0.745370000000     0.719380000000     0.140060000000    -0.0284669  
C116     C      0.768800000000     0.775770000000     0.259820000000     0.0631219  
C117     C      0.776620000000     0.811620000000     0.300110000000    -0.0329997  
C118     C      0.781110000000     0.779220000000     0.219890000000    -0.0546449  
C119     C      0.781160000000     0.821720000000     0.346640000000     0.0107832  
C120     C      0.804950000000     0.784100000000     0.361580000000    -0.0114891  
C121     C      0.740350000000     0.751980000000     0.220260000000    -0.054684   
C122     C      0.786020000000     0.847100000000     0.341800000000     0.0652751  
C123     C      0.739330000000     0.303170000000     0.841500000000    -0.0282753  
C124     C      0.769400000000     0.218860000000     0.666090000000    -0.0283252  
C125     C      0.797180000000     0.247550000000     0.605720000000    -0.0104751  
C126     C      0.772690000000     0.210980000000     0.618080000000    -0.0108471  
C127     C      0.742680000000     0.266500000000     0.715470000000    -0.0520827  
C128     C      0.768850000000     0.256540000000     0.791340000000    -0.0516454  
C129     C      0.763210000000     0.253210000000     0.711740000000     0.0634989  
C130     C      0.792860000000     0.253970000000     0.654240000000    -0.0284734  
C131     C      0.748250000000     0.269750000000     0.795100000000     0.0627523  
C132     C      0.718530000000     0.266500000000     0.851660000000    -0.0337664  
C133     C      0.735180000000     0.274710000000     0.756690000000    -0.0544944  
C134     C      0.712700000000     0.272320000000     0.900210000000     0.0113211  
C135     C      0.735230000000     0.310430000000     0.889540000000    -0.0119329  
C136     C      0.776330000000     0.248290000000     0.750070000000    -0.0549434  
C137     C      0.689150000000     0.262810000000     0.909720000000     0.0633959  
C138     C      0.803530000000     0.237970000000     0.325770000000    -0.0280813  
C139     C      0.710160000000     0.286760000000     0.187190000000    -0.0285424  
C140     C      0.734680000000     0.321230000000     0.132840000000    -0.010761   
C141     C      0.696450000000     0.306430000000     0.164540000000    -0.0108067  
C142     C      0.752010000000     0.284940000000     0.268320000000    -0.0522438  
C143     C      0.763800000000     0.239970000000     0.238210000000    -0.0518585  
C144     C      0.746410000000     0.278370000000     0.224950000000     0.0631984  
C145     C      0.747060000000     0.301100000000     0.156950000000    -0.0287301  
C146     C      0.769340000000     0.246510000000     0.281660000000     0.0628002  
C147     C      0.765580000000     0.222640000000     0.347370000000    -0.0337429  
C148     C      0.763330000000     0.269200000000     0.296560000000    -0.0546236  
C149     C      0.776770000000     0.202330000000     0.373540000000     0.0110692  
C150     C      0.816280000000     0.218140000000     0.349670000000    -0.012408   
C151     C      0.752380000000     0.255690000000     0.210000000000    -0.0549206  
C152     C      0.761690000000     0.197480000000     0.412250000000     0.0630453  
C153     C      0.667190000000     0.567350000000     0.957770000000    -0.0279626  
C154     C      0.668510000000     0.446260000000     0.041870000000    -0.0284334  
C155     C      0.662680000000     0.419910000000     0.959740000000    -0.0109793  
C156     C      0.659500000000     0.420970000000     0.043740000000    -0.0108215  
C157     C      0.646200000000     0.497560000000     0.998190000000    -0.0522747  
C158     C      0.691530000000     0.516070000000     0.000700000000    -0.0518833  
C159     C      0.665390000000     0.482290000000     0.999880000000     0.0629855  
C160     C      0.671480000000     0.445280000000     0.961760000000    -0.0283993  
C161     C      0.672320000000     0.531350000000     0.998770000000     0.0625953  
C162     C      0.667130000000     0.568150000000     0.037480000000    -0.0332903  
C163     C      0.649540000000     0.521870000000     0.997730000000    -0.0547647  
C164     C      0.675250000000     0.593960000000     0.039240000000     0.0110923  
C165     C      0.676200000000     0.592480000000     0.954130000000    -0.0117129  
C166     C      0.688170000000     0.491730000000     0.001340000000    -0.0549532  
C167     C      0.661530000000     0.605950000000     0.074100000000     0.063278   
C168     C      0.300840000000     0.743360000000     0.835550000000    -0.0277832  
C169     C      0.212070000000     0.773040000000     0.669220000000    -0.0281998  
C170     C      0.232320000000     0.813860000000     0.625040000000    -0.0113498  
C171     C      0.196040000000     0.789800000000     0.643900000000    -0.0109528  
C172     C      0.246110000000     0.779360000000     0.762430000000    -0.0520726  
C173     C      0.269530000000     0.738410000000     0.736650000000    -0.0515457  
C174     C      0.245490000000     0.772280000000     0.718080000000     0.0636489  
C175     C      0.246610000000     0.795960000000     0.651380000000    -0.0279539  
C176     C      0.269990000000     0.745380000000     0.781120000000     0.0629651  
C177     C      0.265670000000     0.720550000000     0.845220000000    -0.0330637  
C178     C      0.258210000000     0.766080000000     0.793800000000    -0.0544458  
C179     C      0.278080000000     0.702050000000     0.873950000000     0.0109418  
C180     C      0.315690000000     0.726030000000     0.861820000000    -0.011845   
C181     C      0.257390000000     0.751690000000     0.705260000000    -0.0549201  
C182     C      0.262180000000     0.695990000000     0.910890000000     0.0636232  
C183     C      0.237330000000     0.797240000000     0.328450000000    -0.0279116  
C184     C      0.273560000000     0.707960000000     0.166680000000    -0.0279203  
C185     C      0.306450000000     0.734570000000     0.112190000000    -0.0109114  
C186     C      0.278890000000     0.699420000000     0.119740000000    -0.011265   
C187     C      0.246470000000     0.757750000000     0.207020000000    -0.0520927  
C188     C      0.266550000000     0.747690000000     0.289220000000    -0.0517398  
C189     C      0.266220000000     0.743250000000     0.209100000000     0.0634874  
C190     C      0.299610000000     0.741300000000     0.159510000000    -0.0280945  
C191     C      0.246760000000     0.762200000000     0.287150000000     0.0626769  
C192     C      0.213370000000     0.762610000000     0.336280000000    -0.0334927  
C193     C      0.236750000000     0.767160000000     0.245590000000    -0.0544681  
C194     C      0.205010000000     0.769740000000     0.382890000000     0.0111926  
C195     C      0.231390000000     0.806000000000     0.374830000000    -0.0118276  
C196     C      0.276250000000     0.738230000000     0.250590000000    -0.0551272  
C197     C      0.179810000000     0.764090000000     0.386090000000     0.0638084  
C198     C      0.569930000000     0.688260000000     0.042200000000    -0.0282478  
C199     C      0.447610000000     0.692990000000     0.967750000000    -0.0280586  
C200     C      0.422710000000     0.669990000000     0.040170000000    -0.0109829  
C201     C      0.423510000000     0.682280000000     0.958980000000    -0.0112159  
C202     C      0.500880000000     0.669190000000     0.994150000000    -0.0518523  
C203     C      0.515030000000     0.713690000000     0.022920000000    -0.052093   
C204     C      0.483960000000     0.685810000000     0.006200000000     0.0632159  
C205     C      0.446920000000     0.681200000000     0.044780000000    -0.028225   
C206     C      0.531960000000     0.697050000000     0.010860000000     0.0631591  
C207     C      0.566880000000     0.704650000000     0.968050000000    -0.0340049  
C208     C      0.524680000000     0.674700000000     0.996250000000    -0.0547022  
C209     C      0.591880000000     0.714610000000     0.970520000000     0.0110915  
C210     C      0.594770000000     0.697840000000     0.047410000000    -0.0125725  
C211     C      0.491200000000     0.708210000000     0.020530000000    -0.0547657  
C212     C      0.601780000000     0.714830000000     0.925330000000     0.0649159  
C213     C      0.236230000000     0.216050000000     0.648720000000    -0.027989   
C214     C      0.263120000000     0.297510000000     0.830330000000    -0.0282132  
C215     C      0.303580000000     0.272930000000     0.866790000000    -0.0109647  
C216     C      0.270990000000     0.303000000000     0.877610000000    -0.0111526  
C217     C      0.242840000000     0.246160000000     0.779690000000    -0.0520613  
C218     C      0.253100000000     0.267680000000     0.698750000000    -0.0518603  
C219     C      0.258210000000     0.265310000000     0.778580000000     0.0632853  
C220     C      0.294230000000     0.269040000000     0.819990000000    -0.0281868  
C221     C      0.237770000000     0.248470000000     0.699840000000     0.0627191  
C222     C      0.202380000000     0.240880000000     0.658250000000    -0.0334412  
C223     C      0.232710000000     0.237720000000     0.740760000000    -0.0546778  
C224     C      0.192860000000     0.235000000000     0.611840000000     0.0110262  
C225     C      0.229550000000     0.209620000000     0.601420000000    -0.0117412  
C226     C      0.263330000000     0.276050000000     0.737710000000    -0.0549909  
C227     C      0.167220000000     0.232160000000     0.615680000000     0.0636951  
C228     C      0.290310000000     0.268530000000     0.146030000000    -0.0276524  
C229     C      0.208030000000     0.246520000000     0.328410000000    -0.0283748  
C230     C      0.218830000000     0.196980000000     0.342740000000    -0.0110682  
C231     C      0.190440000000     0.231040000000     0.353180000000    -0.0110675  
C232     C      0.230350000000     0.245020000000     0.221110000000    -0.0520609  
C233     C      0.267130000000     0.273200000000     0.251280000000    -0.0517917  
C234     C      0.235050000000     0.246250000000     0.266500000000     0.0632735  
C235     C      0.235090000000     0.214050000000     0.318700000000    -0.0281976  
C236     C      0.262570000000     0.271800000000     0.205810000000     0.0629446  
C237     C      0.264470000000     0.302060000000     0.149750000000    -0.0334317  
C238     C      0.243930000000     0.257640000000     0.190910000000    -0.0546538  
C239     C      0.281360000000     0.317550000000     0.122680000000     0.0109293  
C240     C      0.308960000000     0.282190000000     0.120730000000    -0.0126027  
C241     C      0.253540000000     0.260540000000     0.281510000000    -0.0549182  
C242     C      0.267070000000     0.332220000000     0.092760000000     0.0635328  
C243     C      0.446560000000     0.307620000000     0.944440000000    -0.0279818  
C244     C      0.567060000000     0.302950000000     0.028570000000    -0.0283881  
C245     C      0.593760000000     0.307930000000     0.946780000000    -0.0111422  
C246     C      0.592830000000     0.295650000000     0.027100000000    -0.0110798  
C247     C      0.516820000000     0.284310000000     0.975610000000    -0.052233   
C248     C      0.496960000000     0.327810000000     0.996860000000    -0.0518353  
C249     C      0.531410000000     0.303350000000     0.985600000000     0.06331    
C250     C      0.567960000000     0.314780000000     0.951040000000    -0.0282544  
C251     C      0.482370000000     0.308790000000     0.986720000000     0.0627896  
C252     C      0.445870000000     0.298070000000     0.021840000000    -0.0330767  
C253     C      0.492500000000     0.286910000000     0.976180000000    -0.0546153  
C254     C      0.420180000000     0.305720000000     0.027600000000     0.0113283  
C255     C      0.421540000000     0.316950000000     0.944350000000    -0.0107549  
C256     C      0.521280000000     0.325190000000     0.996400000000    -0.0550269  
C257     C      0.407610000000     0.287050000000     0.051870000000     0.0632231  
C258     C      0.333690000000     0.562200000000     0.019500000000    -0.0278887  
C259     C      0.333260000000     0.440430000000     0.938440000000    -0.0285242  
C260     C      0.347450000000     0.416810000000     0.019790000000    -0.0106063  
C261     C      0.343040000000     0.415430000000     0.936010000000    -0.0105519  
C262     C      0.356990000000     0.493690000000     0.974620000000    -0.052259   
C263     C      0.310990000000     0.510390000000     0.979120000000    -0.0516741  
C264     C      0.338390000000     0.477690000000     0.976110000000     0.0633476  
C265     C      0.337310000000     0.441640000000     0.018360000000    -0.0283064  
C266     C      0.329600000000     0.526410000000     0.977630000000     0.0628952  
C267     C      0.333010000000     0.563620000000     0.939530000000    -0.0334317  
C268     C      0.352720000000     0.517840000000     0.975480000000    -0.0546342  
C269     C      0.324440000000     0.589280000000     0.939290000000     0.0107898  
C270     C      0.324310000000     0.587190000000     0.023560000000    -0.0122077  
C271     C      0.315280000000     0.486210000000     0.978510000000    -0.0548681  
C272     C      0.335990000000     0.601320000000     0.901830000000     0.0639049  
Cd1      Cd     0.335760000000     0.329070000000     0.985490000000     0.508525   
Cd2      Cd     0.335890000000     0.675300000000     0.996160000000     0.508694   
Cd3      Cd     0.674420000000     0.333610000000     0.007250000000     0.507028   
Cd4      Cd     0.677260000000     0.680840000000     0.985610000000     0.507561   
Cd5      Cd     0.834920000000     0.185190000000     0.503960000000     0.508687   
Cd6      Cd     0.830430000000     0.838220000000     0.487630000000     0.510339   
Cd7      Cd     0.174940000000     0.830920000000     0.497910000000     0.508252   
Cd8      Cd     0.174040000000     0.175800000000     0.484890000000     0.507378   
H1       H      0.153900000000     0.032460000000     0.500700000000     0.0441333  
H2       H      0.174100000000     0.952150000000     0.425140000000     0.0381128  
H3       H      0.187680000000     0.954880000000     0.562550000000     0.0421207  
H4       H      0.209780000000     0.089550000000     0.426360000000     0.0443967  
H5       H      0.153420000000     0.919070000000     0.454570000000     0.0452052  
H6       H      0.201780000000     0.057130000000     0.551440000000     0.0386529  
H7       H      0.185560000000     0.055220000000     0.414490000000     0.0381824  
H8       H      0.196770000000     0.100900000000     0.552130000000     0.0497176  
H9       H      0.146910000000     0.989960000000     0.505710000000     0.0483077  
H10      H      0.178790000000     0.908320000000     0.426200000000     0.0499439  
H11      H      0.226630000000     0.019470000000     0.471170000000     0.048323   
H12      H      0.201810000000     0.942130000000     0.446450000000     0.0409967  
H13      H      0.180520000000     0.098940000000     0.413800000000     0.0490556  
H14      H      0.164890000000     0.919970000000     0.555850000000     0.0435662  
H15      H      0.173170000000     0.066570000000     0.533480000000     0.0418001  
H16      H      0.163660000000     0.065500000000     0.453020000000     0.0414068  
H17      H      0.219700000000     0.977030000000     0.476230000000     0.0442337  
H18      H      0.209890000000     0.944820000000     0.524680000000     0.044444   
H19      H      0.220580000000     0.090890000000     0.518100000000     0.0446237  
H20      H      0.029960000000     0.856190000000     0.486800000000     0.0442147  
H21      H      0.951350000000     0.822940000000     0.421940000000     0.0385576  
H22      H      0.952700000000     0.830780000000     0.561020000000     0.0424736  
H23      H      0.089560000000     0.793270000000     0.447710000000     0.0482499  
H24      H      0.917800000000     0.846580000000     0.436520000000     0.0469374  
H25      H      0.053560000000     0.817710000000     0.562510000000     0.0389796  
H26      H      0.055550000000     0.814550000000     0.422300000000     0.0391346  
H27      H      0.097080000000     0.823370000000     0.564690000000     0.050086   
H28      H      0.987420000000     0.862510000000     0.486120000000     0.0487735  
H29      H      0.907520000000     0.817540000000     0.424970000000     0.0499382  
H30      H      0.018880000000     0.781410000000     0.495920000000     0.0491699  
H31      H      0.941410000000     0.799490000000     0.457330000000     0.0407173  
H32      H      0.099170000000     0.820410000000     0.423510000000     0.0509853  
H33      H      0.917680000000     0.850950000000     0.542970000000     0.0454132  
H34      H      0.063470000000     0.842970000000     0.531690000000     0.0414859  
H35      H      0.064600000000     0.841150000000     0.449910000000     0.0411362  
H36      H      0.976410000000     0.787700000000     0.495470000000     0.0444414  
H37      H      0.943430000000     0.803580000000     0.536250000000     0.044231   
H38      H      0.088070000000     0.795310000000     0.543560000000     0.0464751  
H39      H      0.799550000000     0.040130000000     0.487140000000     0.0452329  
H40      H      0.834460000000     0.961290000000     0.431300000000     0.0394219  
H41      H      0.814740000000     0.960020000000     0.566270000000     0.0432708  
H42      H      0.868270000000     0.096470000000     0.470270000000     0.0443312  
H43      H      0.809320000000     0.927570000000     0.439810000000     0.0498611  
H44      H      0.829620000000     0.063380000000     0.574350000000     0.0395918  
H45      H      0.848410000000     0.063100000000     0.438540000000     0.0385633  
H46      H      0.826010000000     0.107410000000     0.572630000000     0.0515614  
H47      H      0.791910000000     0.997680000000     0.483250000000     0.049857   
H48      H      0.838770000000     0.917820000000     0.430890000000     0.0525756  
H49      H      0.871280000000     0.026210000000     0.522760000000     0.0485929  
H50      H      0.854830000000     0.950600000000     0.472160000000     0.0414682  
H51      H      0.844870000000     0.107150000000     0.436210000000     0.0489776  
H52      H      0.796680000000     0.925530000000     0.535490000000     0.0455413  
H53      H      0.809110000000     0.074090000000     0.533760000000     0.0426005  
H54      H      0.820010000000     0.073930000000     0.454940000000     0.0421934  
H55      H      0.863700000000     0.983860000000     0.518880000000     0.0445311  
H56      H      0.843730000000     0.950860000000     0.550280000000     0.0450383  
H57      H      0.855230000000     0.096650000000     0.564550000000     0.0466326  
H58      H      0.035540000000     0.216920000000     0.526450000000     0.0454526  
H59      H      0.953110000000     0.214640000000     0.456530000000     0.0385625  
H60      H      0.954150000000     0.190350000000     0.589040000000     0.0429041  
H61      H      0.081960000000     0.157930000000     0.434760000000     0.0435972  
H62      H      0.922210000000     0.234400000000     0.498080000000     0.0437989  
H63      H      0.055110000000     0.164310000000     0.565290000000     0.0392481  
H64      H      0.051110000000     0.186990000000     0.431810000000     0.0384504  
H65      H      0.098980000000     0.163580000000     0.560580000000     0.0512452  
H66      H      0.994670000000     0.229110000000     0.537320000000     0.0486333  
H67      H      0.909860000000     0.215630000000     0.456550000000     0.0512561  
H68      H      0.012210000000     0.148310000000     0.485010000000     0.0481046  
H69      H      0.940680000000     0.186150000000     0.468300000000     0.0432351  
H70      H      0.094890000000     0.186310000000     0.425910000000     0.0497417  
H71      H      0.922430000000     0.218790000000     0.581180000000     0.0411504  
H72      H      0.067780000000     0.192210000000     0.550140000000     0.0441662  
H73      H      0.065460000000     0.205470000000     0.472020000000     0.0430725  
H74      H      0.971390000000     0.160500000000     0.495600000000     0.0446847  
H75      H      0.941620000000     0.171530000000     0.547200000000     0.0460775  
H76      H      0.084750000000     0.142650000000     0.525210000000     0.0434205  
H77      H      0.743760000000     0.760380000000     0.799370000000     0.0452655  
H78      H      0.807030000000     0.761610000000     0.673370000000     0.0398711  
H79      H      0.741090000000     0.789360000000     0.637570000000     0.043226   
H80      H      0.732740000000     0.673670000000     0.830950000000     0.0441184  
H81      H      0.815860000000     0.799910000000     0.645340000000     0.0514577  
H82      H      0.695250000000     0.727920000000     0.767260000000     0.0401192  
H83      H      0.761260000000     0.703630000000     0.812390000000     0.038737   
H84      H      0.675850000000     0.711850000000     0.835080000000     0.0548828  
H85      H      0.762970000000     0.786410000000     0.745640000000     0.050328   
H86      H      0.824870000000     0.778850000000     0.604740000000     0.0533931  
H87      H      0.739950000000     0.705790000000     0.700630000000     0.0485897  
H88      H      0.793220000000     0.752530000000     0.622550000000     0.0409655  
H89      H      0.742580000000     0.687460000000     0.881090000000     0.0490921  
H90      H      0.767150000000     0.819900000000     0.615440000000     0.0474167  
H91      H      0.707040000000     0.739850000000     0.817900000000     0.0436501  
H92      H      0.745970000000     0.725550000000     0.844500000000     0.0422458  
H93      H      0.758950000000     0.731840000000     0.646810000000     0.0444271  
H94      H      0.755050000000     0.767520000000     0.603460000000     0.0443063  
H95      H      0.689040000000     0.689720000000     0.800720000000     0.0459     
H96      H      0.724560000000     0.741480000000     0.220970000000     0.0452467  
H97      H      0.800240000000     0.757520000000     0.311750000000     0.0386867  
H98      H      0.759280000000     0.818090000000     0.288460000000     0.0430865  
H99      H      0.756610000000     0.713930000000     0.072560000000     0.044465   
H100     H      0.793850000000     0.773310000000     0.384030000000     0.0478751  
H101     H      0.722120000000     0.773810000000     0.125600000000     0.0390883  
H102     H      0.762710000000     0.712980000000     0.151720000000     0.0388701  
H103     H      0.698750000000     0.751570000000     0.069150000000     0.0494381  
H104     H      0.738750000000     0.759290000000     0.289990000000     0.0500063  
H105     H      0.823490000000     0.779560000000     0.368840000000     0.0501709  
H106     H      0.782730000000     0.771900000000     0.150200000000     0.0485371  
H107     H      0.813750000000     0.784120000000     0.291860000000     0.0408813  
H108     H      0.739700000000     0.690270000000     0.095430000000     0.0505637  
H109     H      0.764810000000     0.819930000000     0.366370000000     0.0476979  
H110     H      0.707940000000     0.748000000000     0.147590000000     0.0425341  
H111     H      0.731670000000     0.712420000000     0.162840000000     0.0428818  
H112     H      0.796930000000     0.789670000000     0.219090000000     0.0444389  
H113     H      0.790130000000     0.818140000000     0.276390000000     0.0443095  
H114     H      0.729060000000     0.755170000000     0.054850000000     0.0442283  
H115     H      0.792220000000     0.237980000000     0.748100000000     0.0453023  
H116     H      0.756020000000     0.311230000000     0.830020000000     0.0384515  
H117     H      0.719920000000     0.247040000000     0.848120000000     0.0426456  
H118     H      0.784650000000     0.257550000000     0.584830000000     0.0445535  
H119     H      0.751160000000     0.306070000000     0.909000000000     0.0446085  
H120     H      0.752170000000     0.212230000000     0.678020000000     0.0396564  
H121     H      0.793080000000     0.273460000000     0.657350000000     0.0385987  
H122     H      0.773830000000     0.191480000000     0.617260000000     0.0522591  
H123     H      0.779030000000     0.252510000000     0.820570000000     0.0486795  
H124     H      0.733090000000     0.329840000000     0.890490000000     0.0506655  
H125     H      0.732390000000     0.270360000000     0.686280000000     0.0487701  
H126     H      0.724850000000     0.310190000000     0.820700000000     0.0421961  
H127     H      0.815170000000     0.253190000000     0.596420000000     0.0495919  
H128     H      0.725400000000     0.262840000000     0.921600000000     0.0419963  
H129     H      0.783370000000     0.210890000000     0.686920000000     0.0434105  
H130     H      0.807330000000     0.246740000000     0.674810000000     0.0428821  
H131     H      0.719150000000     0.284790000000     0.758600000000     0.0446262  
H132     H      0.704040000000     0.272620000000     0.829780000000     0.045569   
H133     H      0.756970000000     0.216230000000     0.598830000000     0.0470822  
H134     H      0.748070000000     0.250110000000     0.176760000000     0.0448839  
H135     H      0.814470000000     0.243660000000     0.297180000000     0.0384206  
H136     H      0.748270000000     0.216700000000     0.334510000000     0.0426357  
H137     H      0.736150000000     0.337380000000     0.153380000000     0.0437267  
H138     H      0.820550000000     0.204190000000     0.325150000000     0.0447937  
H139     H      0.700820000000     0.281900000000     0.218230000000     0.0389612  
H140     H      0.765070000000     0.306920000000     0.165650000000     0.0383712  
H141     H      0.678960000000     0.299560000000     0.154890000000     0.0509562  
H142     H      0.768190000000     0.222560000000     0.226350000000     0.0486599  
H143     H      0.833130000000     0.225180000000     0.362400000000     0.0511954  
H144     H      0.747390000000     0.302260000000     0.280340000000     0.0482419  
H145     H      0.801580000000     0.253150000000     0.348770000000     0.0422093  
H146     H      0.743860000000     0.324570000000     0.100980000000     0.0487111  
H147     H      0.776630000000     0.186440000000     0.352120000000     0.0424772  
H148     H      0.710560000000     0.271070000000     0.165140000000     0.0432505  
H149     H      0.748460000000     0.285760000000     0.134200000000     0.0420611  
H150     H      0.767250000000     0.274690000000     0.330040000000     0.0444019  
H151     H      0.762470000000     0.237890000000     0.369850000000     0.0453526  
H152     H      0.693660000000     0.320850000000     0.188830000000     0.0441617  
H153     H      0.703300000000     0.480310000000     0.002880000000     0.0442554  
H154     H      0.673090000000     0.557470000000     0.927940000000     0.0382173  
H155     H      0.673510000000     0.559050000000     0.067810000000     0.0421169  
H156     H      0.643820000000     0.420100000000     0.950670000000     0.0441506  
H157     H      0.695130000000     0.591950000000     0.945450000000     0.0463317  
H158     H      0.661130000000     0.456050000000     0.070610000000     0.0382675  
H159     H      0.666310000000     0.454330000000     0.930630000000     0.0382066  
H160     H      0.666930000000     0.412290000000     0.073540000000     0.0483633  
H161     H      0.709140000000     0.523080000000     0.001690000000     0.0487661  
H162     H      0.666990000000     0.601140000000     0.926110000000     0.0492875  
H163     H      0.628580000000     0.490540000000     0.997220000000     0.0479067  
H164     H      0.647690000000     0.567540000000     0.957890000000     0.0403566  
H165     H      0.672260000000     0.410540000000     0.932950000000     0.049356   
H166     H      0.693930000000     0.594250000000     0.049540000000     0.0448484  
H167     H      0.687940000000     0.446240000000     0.044950000000     0.0413743  
H168     H      0.690950000000     0.445230000000     0.963690000000     0.0412935  
H169     H      0.634360000000     0.533230000000     0.996440000000     0.0437648  
H170     H      0.647610000000     0.567240000000     0.037700000000     0.0437861  
H171     H      0.640140000000     0.421360000000     0.047700000000     0.0440038  
H172     H      0.257100000000     0.745810000000     0.671200000000     0.0446038  
H173     H      0.312350000000     0.752280000000     0.810960000000     0.0387743  
H174     H      0.250880000000     0.711850000000     0.827600000000     0.0427129  
H175     H      0.229430000000     0.829650000000     0.646040000000     0.0495826  
H176     H      0.326130000000     0.715280000000     0.838190000000     0.0485205  
H177     H      0.201790000000     0.764980000000     0.696630000000     0.0391359  
H178     H      0.262160000000     0.805060000000     0.665480000000     0.0392207  
H179     H      0.182170000000     0.779310000000     0.627290000000     0.0503117  
H180     H      0.278420000000     0.722490000000     0.726440000000     0.0495063  
H181     H      0.328330000000     0.736250000000     0.882150000000     0.0502385  
H182     H      0.236980000000     0.795120000000     0.772750000000     0.049249   
H183     H      0.293780000000     0.756990000000     0.858450000000     0.0405785  
H184     H      0.242750000000     0.819450000000     0.595750000000     0.0507757  
H185     H      0.280600000000     0.685930000000     0.853670000000     0.0466969  
H186     H      0.217950000000     0.758720000000     0.646660000000     0.0416603  
H187     H      0.252930000000     0.781910000000     0.628640000000     0.0410103  
H188     H      0.258160000000     0.771850000000     0.827940000000     0.0442613  
H189     H      0.258090000000     0.734640000000     0.866620000000     0.0440814  
H190     H      0.187280000000     0.801680000000     0.668030000000     0.0470926  
H191     H      0.291470000000     0.727000000000     0.253080000000     0.0442793  
H192     H      0.255050000000     0.803910000000     0.319490000000     0.038358   
H193     H      0.213290000000     0.743060000000     0.334020000000     0.0424351  
H194     H      0.296780000000     0.746100000000     0.088790000000     0.0459356  
H195     H      0.246350000000     0.802020000000     0.397120000000     0.0458509  
H196     H      0.255460000000     0.702360000000     0.175480000000     0.0393008  
H197     H      0.301040000000     0.760730000000     0.162910000000     0.0383268  
H198     H      0.279790000000     0.679900000000     0.120040000000     0.0505672  
H199     H      0.274400000000     0.743670000000     0.320920000000     0.0485292  
H200     H      0.229640000000     0.825450000000     0.373430000000     0.0504475  
H201     H      0.238550000000     0.761690000000     0.175340000000     0.0491917  
H202     H      0.224520000000     0.804670000000     0.304470000000     0.0412857  
H203     H      0.325450000000     0.738100000000     0.107580000000     0.0485815  
H204     H      0.214380000000     0.758670000000     0.407460000000     0.0433995  
H205     H      0.285890000000     0.699490000000     0.190320000000     0.0411443  
H206     H      0.312120000000     0.733090000000     0.183140000000     0.0406657  
H207     H      0.221430000000     0.778250000000     0.242960000000     0.0445135  
H208     H      0.200970000000     0.769430000000     0.310820000000     0.0447961  
H209     H      0.264120000000     0.704490000000     0.097780000000     0.0484724  
H210     H      0.478460000000     0.721450000000     0.029590000000     0.0442683  
H211     H      0.561530000000     0.687690000000     0.075470000000     0.0393552  
H212     H      0.556100000000     0.716300000000     0.946530000000     0.0428289  
H213     H      0.424870000000     0.650620000000     0.037450000000     0.0449787  
H214     H      0.593770000000     0.715070000000     0.064690000000     0.0445324  
H215     H      0.457880000000     0.692380000000     0.936410000000     0.0389603  
H216     H      0.456680000000     0.671690000000     0.071140000000     0.038378   
H217     H      0.413850000000     0.693950000000     0.935830000000     0.0503525  
H218     H      0.520350000000     0.731000000000     0.033850000000     0.0485085  
H219     H      0.604740000000     0.685650000000     0.069050000000     0.0528731  
H220     H      0.495550000000     0.651960000000     0.982740000000     0.0486612  
H221     H      0.570910000000     0.670000000000     0.029110000000     0.0435424  
H222     H      0.412540000000     0.673550000000     0.070870000000     0.0488791  
H223     H      0.590580000000     0.733170000000     0.981780000000     0.0418819  
H224     H      0.445550000000     0.711760000000     0.977540000000     0.0414953  
H225     H      0.444870000000     0.699840000000     0.055330000000     0.0408707  
H226     H      0.537340000000     0.661590000000     0.986230000000     0.0450309  
H227     H      0.567300000000     0.686820000000     0.952690000000     0.046577   
H228     H      0.425900000000     0.665050000000     0.942200000000     0.0465585  
H229     H      0.275320000000     0.290750000000     0.735920000000     0.0442792  
H230     H      0.255640000000     0.215070000000     0.651600000000     0.038164   
H231     H      0.196450000000     0.258900000000     0.667430000000     0.0423554  
H232     H      0.297300000000     0.258390000000     0.888320000000     0.0455244  
H233     H      0.240340000000     0.220290000000     0.578250000000     0.0450745  
H234     H      0.243880000000     0.300390000000     0.828190000000     0.0391167  
H235     H      0.298290000000     0.250650000000     0.809970000000     0.0383822  
H236     H      0.268720000000     0.322140000000     0.883700000000     0.0505787  
H237     H      0.257270000000     0.276030000000     0.667520000000     0.0484194  
H238     H      0.234270000000     0.190880000000     0.595930000000     0.0501876  
H239     H      0.238880000000     0.237640000000     0.810860000000     0.0486337  
H240     H      0.228510000000     0.202950000000     0.671940000000     0.0415201  
H241     H      0.323030000000     0.271990000000     0.865790000000     0.0496725  
H242     H      0.196200000000     0.250320000000     0.589910000000     0.043258   
H243     H      0.271860000000     0.309890000000     0.807040000000     0.041328   
H244     H      0.303350000000     0.281120000000     0.796650000000     0.0414392  
H245     H      0.221110000000     0.222730000000     0.742600000000     0.0444572  
H246     H      0.194950000000     0.228410000000     0.683070000000     0.0445316  
H247     H      0.259330000000     0.293520000000     0.901090000000     0.0460214  
H248     H      0.257570000000     0.261710000000     0.316430000000     0.0442047  
H249     H      0.299180000000     0.254590000000     0.165670000000     0.0393202  
H250     H      0.254290000000     0.313570000000     0.172620000000     0.0424725  
H251     H      0.209200000000     0.186440000000     0.317670000000     0.0453826  
H252     H      0.322770000000     0.287790000000     0.144390000000     0.0489128  
H253     H      0.198200000000     0.260630000000     0.310980000000     0.0387181  
H254     H      0.245540000000     0.203950000000     0.294040000000     0.0383471  
H255     H      0.182270000000     0.241610000000     0.380050000000     0.0492906  
H256     H      0.281430000000     0.283960000000     0.263230000000     0.0488878  
H257     H      0.317280000000     0.269990000000     0.096600000000     0.0531268  
H258     H      0.216230000000     0.234030000000     0.209120000000     0.0485015  
H259     H      0.278340000000     0.259820000000     0.121990000000     0.0414113  
H260     H      0.229690000000     0.184630000000     0.362490000000     0.0490713  
H261     H      0.290580000000     0.329510000000     0.145950000000     0.0442641  
H262     H      0.220020000000     0.254970000000     0.352720000000     0.0409419  
H263     H      0.247420000000     0.222030000000     0.342970000000     0.0410644  
H264     H      0.240050000000     0.256150000000     0.155980000000     0.0442974  
H265     H      0.251780000000     0.293240000000     0.127140000000     0.0444363  
H266     H      0.176320000000     0.225830000000     0.329870000000     0.0457631  
H267     H      0.532160000000     0.340170000000     0.004390000000     0.0442447  
H268     H      0.456480000000     0.316700000000     0.917680000000     0.0381508  
H269     H      0.455010000000     0.300480000000     0.054090000000     0.0419667  
H270     H      0.594800000000     0.289980000000     0.932340000000     0.0467625  
H271     H      0.422130000000     0.336380000000     0.940300000000     0.0466315  
H272     H      0.557880000000     0.291710000000     0.053230000000     0.0389977  
H273     H      0.559420000000     0.312290000000     0.918270000000     0.0386332  
H274     H      0.600890000000     0.299370000000     0.059840000000     0.0506075  
H275     H      0.489420000000     0.344710000000     0.005150000000     0.048738   
H276     H      0.412340000000     0.309840000000     0.914790000000     0.0485107  
H277     H      0.524360000000     0.267410000000     0.967340000000     0.0488727  
H278     H      0.446390000000     0.288480000000     0.936670000000     0.0399176  
H279     H      0.602450000000     0.320220000000     0.923380000000     0.0501275  
H280     H      0.419880000000     0.321710000000     0.048790000000     0.0454552  
H281     H      0.565830000000     0.321550000000     0.039810000000     0.0420889  
H282     H      0.566760000000     0.333720000000     0.960050000000     0.0416013  
H283     H      0.481630000000     0.271900000000     0.968350000000     0.0442211  
H284     H      0.446910000000     0.279010000000     0.013240000000     0.0435745  
H285     H      0.593760000000     0.276370000000     0.021380000000     0.0462649  
H286     H      0.300620000000     0.474190000000     0.980120000000     0.0451519  
H287     H      0.327920000000     0.552110000000     0.049160000000     0.0385399  
H288     H      0.326310000000     0.554660000000     0.909270000000     0.0427427  
H289     H      0.366820000000     0.418060000000     0.022540000000     0.0442933  
H290     H      0.305140000000     0.586350000000     0.029880000000     0.0469542  
H291     H      0.337650000000     0.449650000000     0.907010000000     0.0387529  
H292     H      0.344630000000     0.451790000000     0.046650000000     0.0386035  
H293     H      0.333430000000     0.405610000000     0.909900000000     0.0495346  
H294     H      0.293140000000     0.516710000000     0.981040000000     0.0492559  
H295     H      0.332550000000     0.595420000000     0.053070000000     0.0506284  
H296     H      0.374850000000     0.487370000000     0.973090000000     0.0481855  
H297     H      0.353190000000     0.562660000000     0.019270000000     0.0413296  
H298     H      0.340880000000     0.407890000000     0.050110000000     0.0505801  
H299     H      0.305300000000     0.589210000000     0.932690000000     0.0445593  
H300     H      0.313850000000     0.439600000000     0.941430000000     0.0422783  
H301     H      0.317940000000     0.440770000000     0.022480000000     0.0429555  
H302     H      0.367460000000     0.529780000000     0.974690000000     0.0440828  
H303     H      0.352530000000     0.563240000000     0.938180000000     0.0444643  
H304     H      0.361730000000     0.416350000000     0.925770000000     0.0441838  
N1       N      0.179590000000     0.905780000000     0.497230000000    -0.153258   
N2       N      0.177830000000     0.955490000000     0.494900000000    -0.11228    
N3       N      0.195780000000     0.053880000000     0.482160000000    -0.113142   
N4       N      0.191570000000     0.103220000000     0.481580000000    -0.153337   
N5       N      0.214030000000     0.897650000000     0.598640000000    -0.0959556  
N6       N      0.904430000000     0.828790000000     0.492580000000    -0.152458   
N7       N      0.953850000000     0.830230000000     0.490840000000    -0.111896   
N8       N      0.052390000000     0.813680000000     0.492480000000    -0.11283    
N9       N      0.101530000000     0.818080000000     0.494530000000    -0.152596   
N10      N      0.895000000000     0.808500000000     0.606210000000    -0.0945737  
N11      N      0.825020000000     0.912940000000     0.496850000000    -0.152501   
N12      N      0.821980000000     0.962790000000     0.497600000000    -0.112091   
N13      N      0.841440000000     0.061020000000     0.507640000000    -0.112842   
N14      N      0.839880000000     0.110510000000     0.506580000000    -0.152974   
N15      N      0.828700000000     0.902300000000     0.617050000000    -0.092843   
N16      N      0.906500000000     0.203780000000     0.524540000000    -0.153475   
N17      N      0.956230000000     0.203750000000     0.523630000000    -0.113019   
N18      N      0.050570000000     0.173760000000     0.497680000000    -0.113046   
N19      N      0.099710000000     0.171240000000     0.490720000000    -0.15334    
N20      N      0.896840000000     0.173650000000     0.632420000000    -0.0938638  
N21      N      0.794630000000     0.799540000000     0.588040000000    -0.152065   
N22      N      0.773700000000     0.777070000000     0.661760000000    -0.111654   
N23      N      0.729100000000     0.715190000000     0.784310000000    -0.113058   
N24      N      0.707510000000     0.696000000000     0.860100000000    -0.152452   
N25      N      0.742830000000     0.807060000000     0.517790000000    -0.0950922  
N26      N      0.800230000000     0.809220000000     0.370670000000    -0.152273   
N27      N      0.776600000000     0.785840000000     0.301180000000    -0.111658   
N28      N      0.745060000000     0.745220000000     0.139110000000    -0.112955   
N29      N      0.720210000000     0.720490000000     0.073340000000    -0.153491   
N30      N      0.790480000000     0.870390000000     0.337280000000    -0.09498    
N31      N      0.715020000000     0.297980000000     0.909290000000    -0.153377   
N32      N      0.740770000000     0.277450000000     0.838480000000    -0.112615   
N33      N      0.770060000000     0.244670000000     0.668630000000    -0.112888   
N34      N      0.793460000000     0.222210000000     0.598130000000    -0.15261    
N35      N      0.667550000000     0.253970000000     0.918170000000    -0.0952625  
N36      N      0.801570000000     0.207770000000     0.384970000000    -0.153066   
N37      N      0.780660000000     0.229580000000     0.310130000000    -0.112748   
N38      N      0.734000000000     0.294900000000     0.197360000000    -0.113098   
N39      N      0.709670000000     0.315780000000     0.126460000000    -0.153046   
N40      N      0.747690000000     0.193100000000     0.447610000000    -0.0945727  
N41      N      0.673410000000     0.606050000000     0.995640000000    -0.153235   
N42      N      0.676520000000     0.556400000000     0.998010000000    -0.112087   
N43      N      0.661130000000     0.457290000000     0.000190000000    -0.113041   
N44      N      0.665220000000     0.407960000000     0.002830000000    -0.15379    
N45      N      0.648910000000     0.616900000000     0.106100000000    -0.095538   
N46      N      0.301520000000     0.710000000000     0.889610000000    -0.152403   
N47      N      0.281960000000     0.730700000000     0.812870000000    -0.111864   
N48      N      0.232130000000     0.786110000000     0.687090000000    -0.112671   
N49      N      0.209310000000     0.804270000000     0.612000000000    -0.152322   
N50      N      0.247540000000     0.690490000000     0.944730000000    -0.0957033  
N51      N      0.210080000000     0.794850000000     0.393230000000    -0.153109   
N52      N      0.237100000000     0.771460000000     0.327830000000    -0.112263   
N53      N      0.275490000000     0.733680000000     0.168440000000    -0.112644   
N54      N      0.300650000000     0.709850000000     0.102010000000    -0.152837   
N55      N      0.156680000000     0.758870000000     0.388890000000    -0.0952041  
N56      N      0.605930000000     0.701350000000     0.003720000000    -0.152766   
N57      N      0.556390000000     0.703590000000     0.012520000000    -0.112908   
N58      N      0.459560000000     0.679530000000     0.002480000000    -0.112812   
N59      N      0.410290000000     0.678470000000     0.000410000000    -0.152838   
N60      N      0.610650000000     0.715120000000     0.883650000000    -0.0928734  
N61      N      0.204530000000     0.214070000000     0.591870000000    -0.153186   
N62      N      0.228070000000     0.239910000000     0.658710000000    -0.112362   
N63      N      0.268810000000     0.272980000000     0.819440000000    -0.112863   
N64      N      0.295360000000     0.295440000000     0.885570000000    -0.152985   
N65      N      0.143690000000     0.229570000000     0.619400000000    -0.095615   
N66      N      0.299350000000     0.303350000000     0.098850000000    -0.152446   
N67      N      0.277490000000     0.284530000000     0.175500000000    -0.112329   
N68      N      0.221150000000     0.232190000000     0.296340000000    -0.112938   
N69      N      0.201610000000     0.209550000000     0.370550000000    -0.153199   
N70      N      0.253850000000     0.345670000000     0.065430000000    -0.0947414  
N71      N      0.408240000000     0.311450000000     0.985170000000    -0.152862   
N72      N      0.457320000000     0.312260000000     0.987590000000    -0.111656   
N73      N      0.556450000000     0.299950000000     0.984550000000    -0.112966   
N74      N      0.605080000000     0.307710000000     0.990610000000    -0.152678   
N75      N      0.396040000000     0.269910000000     0.074140000000    -0.0964635  
N76      N      0.328380000000     0.601030000000     0.982820000000    -0.152899   
N77      N      0.324490000000     0.551270000000     0.979090000000    -0.112394   
N78      N      0.343650000000     0.452890000000     0.976260000000    -0.112987   
N79      N      0.341650000000     0.403490000000     0.979310000000    -0.153174   
N80      N      0.346620000000     0.612220000000     0.867300000000    -0.0946617  
O1       O      0.307020000000     0.331870000000     0.046140000000    -0.240842   
O2       O      0.301380000000     0.324900000000     0.936620000000    -0.249437   
O3       O      0.372660000000     0.316590000000     0.020280000000    -0.243246   
O4       O      0.336050000000     0.367290000000     0.946860000000    -0.25102    
O5       O      0.340350000000     0.368530000000     0.017460000000    -0.25       
O6       O      0.374190000000     0.322820000000     0.950220000000    -0.250312   
O7       O      0.326890000000     0.299950000000     0.043220000000    -0.24609    
O8       O      0.328540000000     0.299180000000     0.928120000000    -0.250214   
O9       O      0.306570000000     0.678220000000     0.055810000000    -0.248127   
O10      O      0.332940000000     0.704800000000     0.936640000000    -0.245747   
O11      O      0.332560000000     0.634820000000     0.024440000000    -0.248418   
O12      O      0.374280000000     0.673100000000     0.033280000000    -0.252254   
O13      O      0.375020000000     0.682480000000     0.964410000000    -0.247031   
O14      O      0.330840000000     0.638650000000     0.954010000000    -0.241999   
O15      O      0.329830000000     0.707690000000     0.049440000000    -0.253508   
O16      O      0.303570000000     0.681610000000     0.944170000000    -0.241468   
O17      O      0.704720000000     0.331130000000     0.949030000000    -0.248371   
O18      O      0.676830000000     0.317710000000     0.082600000000    -0.244153   
O19      O      0.638420000000     0.325840000000     0.964740000000    -0.251088   
O20      O      0.671930000000     0.372130000000     0.969680000000    -0.250094   
O21      O      0.668470000000     0.372910000000     0.040350000000    -0.256189   
O22      O      0.637880000000     0.314840000000     0.032710000000    -0.244733   
O23      O      0.687170000000     0.298970000000     0.965050000000    -0.246443   
O24      O      0.709110000000     0.331000000000     0.055770000000    -0.252761   
O25      O      0.709850000000     0.682670000000     0.931960000000    -0.25189    
O26      O      0.689180000000     0.716850000000     0.025250000000    -0.254991   
O27      O      0.673690000000     0.640620000000     0.955740000000    -0.25414    
O28      O      0.640140000000     0.683780000000     0.027430000000    -0.249046   
O29      O      0.640430000000     0.699770000000     0.963390000000    -0.236345   
O30      O      0.677190000000     0.643150000000     0.026170000000    -0.24153    
O31      O      0.676440000000     0.694860000000     0.908660000000    -0.239714   
O32      O      0.709710000000     0.686070000000     0.038550000000    -0.248846   
O33      O      0.832160000000     0.146220000000     0.539340000000    -0.246112   
O34      O      0.873360000000     0.200650000000     0.481330000000    -0.246271   
O35      O      0.803200000000     0.188900000000     0.558900000000    -0.24463    
O36      O      0.801990000000     0.187510000000     0.451500000000    -0.244499   
O37      O      0.833320000000     0.205390000000     0.431950000000    -0.245849   
O38      O      0.823880000000     0.219920000000     0.548180000000    -0.253079   
O39      O      0.841690000000     0.146130000000     0.470580000000    -0.254663   
O40      O      0.870700000000     0.189460000000     0.548740000000    -0.244025   
O41      O      0.827750000000     0.809580000000     0.548540000000    -0.24493    
O42      O      0.803860000000     0.838460000000     0.423460000000    -0.240905   
O43      O      0.868630000000     0.836750000000     0.525140000000    -0.240866   
O44      O      0.821010000000     0.875460000000     0.525810000000    -0.241352   
O45      O      0.833550000000     0.878670000000     0.459270000000    -0.248674   
O46      O      0.869230000000     0.830100000000     0.455210000000    -0.248016   
O47      O      0.795750000000     0.827090000000     0.531760000000    -0.241657   
O48      O      0.825380000000     0.807800000000     0.430340000000    -0.249253   
O49      O      0.137160000000     0.823900000000     0.460420000000    -0.248598   
O50      O      0.178980000000     0.869810000000     0.532690000000    -0.245556   
O51      O      0.203400000000     0.827510000000     0.436810000000    -0.24932    
O52      O      0.177940000000     0.806190000000     0.564420000000    -0.246401   
O53      O      0.208410000000     0.826750000000     0.548690000000    -0.248149   
O54      O      0.183340000000     0.796560000000     0.450790000000    -0.245315   
O55      O      0.135970000000     0.825530000000     0.531410000000    -0.247914   
O56      O      0.174880000000     0.870010000000     0.462220000000    -0.250202   
O57      O      0.178580000000     0.137310000000     0.448860000000    -0.250422   
O58      O      0.136300000000     0.168160000000     0.522060000000    -0.250808   
O59      O      0.201050000000     0.179740000000     0.421920000000    -0.250871   
O60      O      0.205080000000     0.184890000000     0.538780000000    -0.250427   
O61      O      0.174780000000     0.207020000000     0.541610000000    -0.24463    
O62      O      0.176460000000     0.207980000000     0.430170000000    -0.249168   
O63      O      0.187200000000     0.138500000000     0.518070000000    -0.247892   
O64      O      0.134200000000     0.179440000000     0.454380000000    -0.250702   


