data_structure

_audit_creation_method RASPA-1.0
_audit_creation_date 2023-5-25
_audit_author_name 'Poobodin Mano'

_cell_length_a    44.5905
_cell_length_b    41.5824
_cell_length_c    47.9367
_cell_angle_alpha 90
_cell_angle_beta  90
_cell_angle_gamma 90
_cell_volume      88883.3

_symmetry_cell_setting          triclinic
_symmetry_space_group_name_Hall 'P 1'
_symmetry_space_group_name_H-M  'P 1'
_symmetry_Int_Tables_number     1

_symmetry_equiv_pos_as_xyz 'x,y,z'

loop_
_atom_site_label
_atom_site_type_symbol
_atom_site_fract_x
_atom_site_fract_y
_atom_site_fract_z
_atom_site_charge
C1       C      0.912730000000     0.482090000000     0.886310000000     0.340885   
C2       C      0.846000000000     0.486690000000     0.816930000000     0.340666   
C3       C      0.919620000000     0.404830000000     0.809650000000     0.340773   
C4       C      0.849730000000     0.388680000000     0.874250000000     0.339069   
C5       C      0.111370000000     0.615910000000     0.073220000000     0.34087    
C6       C      0.192590000000     0.633240000000     0.130790000000     0.339106   
C7       C      0.173370000000     0.713050000000     0.065420000000     0.342191   
C8       C      0.104580000000     0.701150000000     0.136720000000     0.3389     
C9       C      0.416450000000     0.961950000000     0.871910000000     0.340679   
C10      C      0.420140000000     0.872910000000     0.805830000000     0.340468   
C11      C      0.349850000000     0.869530000000     0.870580000000     0.339446   
C12      C      0.347580000000     0.959290000000     0.805650000000     0.338998   
C13      C      0.668190000000     0.218920000000     0.056850000000     0.34178    
C14      C      0.603110000000     0.127620000000     0.053510000000     0.339581   
C15      C      0.666060000000     0.134420000000     0.127140000000     0.342358   
C16      C      0.591250000000     0.217110000000     0.116870000000     0.339635   
C17      C      0.412610000000     0.352250000000     0.321070000000     0.341859   
C18      C      0.338470000000     0.432370000000     0.317370000000     0.341048   
C19      C      0.334710000000     0.356790000000     0.389710000000     0.342252   
C20      C      0.413560000000     0.433020000000     0.388140000000     0.340351   
C21      C      0.676640000000     0.694240000000     0.551020000000     0.339728   
C22      C      0.657440000000     0.619110000000     0.621110000000     0.340842   
C23      C      0.604660000000     0.721680000000     0.616450000000     0.340819   
C24      C      0.582310000000     0.637020000000     0.556140000000     0.340609   
C25      C      0.826730000000     0.888500000000     0.365640000000     0.341197   
C26      C      0.899600000000     0.861920000000     0.302200000000     0.341084   
C27      C      0.853710000000     0.969660000000     0.306230000000     0.339019   
C28      C      0.928430000000     0.936740000000     0.367540000000     0.340272   
C29      C      0.077880000000     0.189080000000     0.643850000000     0.341152   
C30      C      0.142830000000     0.100890000000     0.629600000000     0.340712   
C31      C      0.076080000000     0.125030000000     0.559900000000     0.343507   
C32      C      0.154570000000     0.201030000000     0.581900000000     0.339196   
C33      C      0.030730000000     0.062580000000     0.525510000000    -0.0285769  
C34      C      0.981240000000     0.996820000000     0.391170000000    -0.0289528  
C35      C      0.958010000000     0.935510000000     0.411220000000    -0.0104701  
C36      C      0.974750000000     0.969460000000     0.370660000000    -0.0106551  
C37      C      0.027720000000     0.006100000000     0.449410000000    -0.0515504  
C38      C      0.989840000000     0.056430000000     0.465430000000    -0.0516257  
C39      C      0.998900000000     0.008200000000     0.437930000000     0.063186   
C40      C      0.964810000000     0.963850000000     0.430550000000    -0.0288146  
C41      C      0.018590000000     0.054220000000     0.477020000000     0.0643324  
C42      C      0.054410000000     0.095650000000     0.489960000000    -0.0328252  
C43      C      0.037550000000     0.028810000000     0.468870000000    -0.0550147  
C44      C      0.059710000000     0.123340000000     0.510650000000     0.0122171  
C45      C      0.034420000000     0.088730000000     0.547630000000    -0.00940356 
C46      C      0.979960000000     0.033620000000     0.446110000000    -0.0542626  
C47      C      0.037100000000     0.148690000000     0.506510000000     0.0620069  
C48      C      0.789800000000     0.859770000000     0.428060000000    -0.0283814  
C49      C      0.709620000000     0.720190000000     0.485270000000    -0.028864   
C50      C      0.718590000000     0.732440000000     0.544570000000    -0.0106677  
C51      C      0.704820000000     0.693190000000     0.506530000000    -0.0105465  
C52      C      0.770450000000     0.767350000000     0.465790000000    -0.0516849  
C53      C      0.729200000000     0.811760000000     0.444620000000    -0.0516306  
C54      C      0.740660000000     0.766480000000     0.474980000000     0.0632056  
C55      C      0.722830000000     0.758150000000     0.522100000000    -0.0286869  
C56      C      0.759040000000     0.812780000000     0.435580000000     0.0642213  
C57      C      0.778540000000     0.823590000000     0.389320000000    -0.0327036  
C58      C      0.779670000000     0.790250000000     0.446250000000    -0.0550864  
C59      C      0.784080000000     0.850380000000     0.367820000000     0.0119476  
C60      C      0.795220000000     0.887880000000     0.408130000000    -0.00971903 
C61      C      0.719980000000     0.788840000000     0.464160000000    -0.054251   
C62      C      0.755390000000     0.864350000000     0.358650000000     0.0607862  
C63      C      0.270490000000     0.339480000000     0.436230000000    -0.0279128  
C64      C      0.221350000000     0.226510000000     0.544810000000    -0.0288145  
C65      C      0.164520000000     0.254940000000     0.561990000000    -0.0105087  
C66      C      0.207090000000     0.217050000000     0.572650000000    -0.0104649  
C67      C      0.225050000000     0.257260000000     0.486770000000    -0.0539439  
C68      C      0.265410000000     0.308160000000     0.493590000000    -0.055041   
C69      C      0.228980000000     0.271130000000     0.513330000000     0.063221   
C70      C      0.180160000000     0.263350000000     0.534510000000    -0.0287923  
C71      C      0.261300000000     0.294420000000     0.467010000000     0.0644274  
C72      C      0.309930000000     0.300530000000     0.445070000000    -0.0324322  
C73      C      0.241080000000     0.268920000000     0.463860000000    -0.0513323  
C74      C      0.325150000000     0.307480000000     0.416960000000     0.0117565  
C75      C      0.283570000000     0.348250000000     0.407750000000    -0.0102646  
C76      C      0.249300000000     0.296570000000     0.516500000000    -0.0517009  
C77      C      0.317910000000     0.281950000000     0.396770000000     0.0648747  
C78      C      0.533020000000     0.570880000000     0.534610000000    -0.0282857  
C79      C      0.457750000000     0.503790000000     0.411270000000    -0.0286226  
C80      C      0.440990000000     0.440420000000     0.432270000000    -0.010758   
C81      C      0.450610000000     0.476860000000     0.390570000000    -0.0104156  
C82      C      0.513340000000     0.514320000000     0.460720000000    -0.0518375  
C83      C      0.476850000000     0.561110000000     0.485290000000    -0.0516777  
C84      C      0.482500000000     0.514350000000     0.455220000000     0.0631391  
C85      C      0.448620000000     0.469040000000     0.451030000000    -0.0284463  
C86      C      0.507680000000     0.561010000000     0.490870000000     0.0639327  
C87      C      0.541160000000     0.606610000000     0.495110000000    -0.0327743  
C88      C      0.525930000000     0.537410000000     0.478360000000    -0.0550856  
C89      C      0.549940000000     0.634680000000     0.514300000000     0.0120508  
C90      C      0.541090000000     0.597340000000     0.555450000000    -0.0099389  
C91      C      0.464260000000     0.538030000000     0.467600000000    -0.0544905  
C92      C      0.524500000000     0.656930000000     0.517610000000     0.0615955  
C93      C      0.698430000000     0.105920000000     0.193760000000    -0.0282483  
C94      C      0.826110000000     0.011310000000     0.245170000000    -0.0288443  
C95      C      0.821120000000     0.017900000000     0.305520000000    -0.0105195  
C96      C      0.852960000000     0.003760000000     0.263920000000    -0.0103659  
C97      C      0.784240000000     0.078610000000     0.230250000000    -0.0516415  
C98      C      0.738770000000     0.037280000000     0.212110000000    -0.0511289  
C99      C      0.783640000000     0.046780000000     0.239790000000     0.0633474  
C100     C      0.795220000000     0.025170000000     0.285520000000    -0.0289309  
C101     C      0.739430000000     0.069070000000     0.202500000000     0.0643238  
C102     C      0.729590000000     0.087360000000     0.155460000000    -0.0325462  
C103     C      0.762390000000     0.089760000000     0.211720000000    -0.0550848  
C104     C      0.704360000000     0.092370000000     0.134110000000     0.0121187  
C105     C      0.671700000000     0.111780000000     0.174400000000    -0.00972204 
C106     C      0.760660000000     0.026110000000     0.230560000000    -0.0540215  
C107     C      0.690220000000     0.061370000000     0.127230000000     0.0615748  
C108     C      0.477540000000     0.331220000000     0.277900000000    -0.0282132  
C109     C      0.523190000000     0.238480000000     0.154560000000    -0.0287628  
C110     C      0.582910000000     0.265290000000     0.146110000000    -0.0107093  
C111     C      0.539110000000     0.234250000000     0.126500000000    -0.010606   
C112     C      0.498320000000     0.303890000000     0.192880000000    -0.0518128  
C113     C      0.499970000000     0.264490000000     0.240140000000    -0.0514396  
C114     C      0.515810000000     0.275920000000     0.192580000000     0.0632674  
C115     C      0.565580000000     0.268500000000     0.173500000000    -0.0285297  
C116     C      0.482730000000     0.292630000000     0.240540000000     0.0641395  
C117     C      0.433990000000     0.301290000000     0.261650000000    -0.0325172  
C118     C      0.481840000000     0.312250000000     0.216600000000    -0.055053   
C119     C      0.417930000000     0.305270000000     0.289820000000     0.0118067  
C120     C      0.463630000000     0.336150000000     0.306720000000    -0.00984136 
C121     C      0.516380000000     0.256080000000     0.216400000000    -0.0542503  
C122     C      0.420780000000     0.275660000000     0.306450000000     0.0637884  
C123     C      0.173940000000     0.060800000000     0.689670000000    -0.028325   
C124     C      0.315150000000     0.993280000000     0.742010000000    -0.0286163  
C125     C      0.303670000000     0.995280000000     0.801880000000    -0.0109505  
C126     C      0.341310000000     0.991210000000     0.762570000000    -0.0105718  
C127     C      0.261970000000     0.051210000000     0.726890000000    -0.0518233  
C128     C      0.227190000000     0.002390000000     0.703130000000    -0.0516049  
C129     C      0.267310000000     0.019160000000     0.734310000000     0.0633436  
C130     C      0.278890000000     0.997270000000     0.779870000000    -0.0282258  
C131     C      0.221720000000     0.034470000000     0.695840000000     0.0640278  
C132     C      0.208920000000     0.056480000000     0.650590000000    -0.0327907  
C133     C      0.239410000000     0.058920000000     0.707810000000    -0.0550843  
C134     C      0.183370000000     0.060130000000     0.629280000000     0.0122035  
C135     C      0.147260000000     0.063960000000     0.669860000000    -0.0096191  
C136     C      0.249800000000     0.994680000000     0.722180000000    -0.0544311  
C137     C      0.174320000000     0.028400000000     0.618560000000     0.0592345  
C138     C      0.489010000000     0.837950000000     0.776500000000    -0.0283014  
C139     C      0.543200000000     0.767310000000     0.645360000000    -0.0286899  
C140     C      0.607350000000     0.760660000000     0.655430000000    -0.0103546  
C141     C      0.564880000000     0.762890000000     0.620920000000    -0.0107147  
C142     C      0.532070000000     0.824580000000     0.695910000000    -0.0518315  
C143     C      0.503010000000     0.777460000000     0.727570000000    -0.0515773  
C144     C      0.537890000000     0.792050000000     0.690650000000     0.0633077  
C145     C      0.584480000000     0.765260000000     0.678890000000    -0.028884   
C146     C      0.497200000000     0.809980000000     0.732850000000     0.0642015  
C147     C      0.448690000000     0.833410000000     0.742520000000    -0.0326407  
C148     C      0.511840000000     0.833590000000     0.716760000000    -0.0551548  
C149     C      0.424540000000     0.836770000000     0.765160000000     0.0120952  
C150     C      0.466770000000     0.841400000000     0.800620000000    -0.00986    
C151     C      0.523100000000     0.768450000000     0.706620000000    -0.0543124  
C152     C      0.412300000000     0.804970000000     0.772420000000     0.0607413  
C153     C      0.481410000000     0.008260000000     0.897090000000    -0.0283519  
C154     C      0.541440000000     0.078390000000     0.026220000000    -0.0282388  
C155     C      0.601640000000     0.097420000000     0.009140000000    -0.0108431  
C156     C      0.565550000000     0.084400000000     0.048300000000    -0.0110122  
C157     C      0.532510000000     0.023420000000     0.973190000000    -0.0517692  
C158     C      0.491440000000     0.065930000000     0.949010000000    -0.051676   
C159     C      0.533410000000     0.056070000000     0.980300000000     0.0632419  
C160     C      0.576170000000     0.090800000000     0.988540000000    -0.0284393  
C161     C      0.490570000000     0.033290000000     0.941870000000     0.0640388  
C162     C      0.446330000000     0.000430000000     0.935350000000    -0.0327133  
C163     C      0.511260000000     0.012000000000     0.954180000000    -0.0550618  
C164     C      0.420230000000     0.993830000000     0.915250000000     0.0121603  
C165     C      0.456990000000     0.002200000000     0.875300000000    -0.00989411 
C166     C      0.512610000000     0.077330000000     0.968100000000    -0.054476   
C167     C      0.401330000000     0.022680000000     0.912450000000     0.0609209  
C168     C      0.955070000000     0.802650000000     0.282160000000    -0.0283922  
C169     C      0.040100000000     0.751660000000     0.158530000000    -0.0281798  
C170     C      0.088380000000     0.714800000000     0.184360000000    -0.0109664  
C171     C      0.069200000000     0.746130000000     0.142340000000    -0.0109682  
C172     C      0.023180000000     0.793570000000     0.218220000000    -0.0516581  
C173     C      0.970500000000     0.757410000000     0.222550000000    -0.051653   
C174     C      0.021180000000     0.763890000000     0.204580000000     0.0634368  
C175     C      0.058430000000     0.721950000000     0.198610000000    -0.0282189  
C176     C      0.972600000000     0.787000000000     0.236380000000     0.0640083  
C177     C      0.933690000000     0.827230000000     0.240370000000    -0.032821   
C178     C      0.999130000000     0.805180000000     0.233930000000    -0.0549766  
C179     C      0.904690000000     0.836030000000     0.255920000000     0.0120768  
C180     C      0.926870000000     0.810200000000     0.299080000000    -0.00980236 
C181     C      0.994510000000     0.745900000000     0.206670000000    -0.054448   
C182     C      0.881090000000     0.812260000000     0.249920000000     0.060994   
C183     C      0.193170000000     0.752990000000     0.999770000000    -0.0284749  
C184     C      0.324600000000     0.826520000000     0.932960000000    -0.0284597  
C185     C      0.304920000000     0.835170000000     0.875450000000    -0.0108564  
C186     C      0.347800000000     0.831090000000     0.909800000000    -0.0107065  
C187     C      0.272310000000     0.768580000000     0.948370000000    -0.051813   
C188     C      0.243120000000     0.814210000000     0.981540000000    -0.0514469  
C189     C      0.277120000000     0.801370000000     0.943430000000     0.0634016  
C190     C      0.283290000000     0.830290000000     0.899870000000    -0.02834    
C191     C      0.238370000000     0.781420000000     0.986530000000     0.0640141  
C192     C      0.235640000000     0.755580000000     0.031620000000    -0.0326789  
C193     C      0.253170000000     0.758580000000     0.969750000000    -0.0549688  
C194     C      0.215380000000     0.750630000000     0.057160000000     0.0121599  
C195     C      0.171110000000     0.748120000000     0.023850000000    -0.00967933 
C196     C      0.262370000000     0.824220000000     0.960240000000    -0.0543813  
C197     C      0.209430000000     0.781640000000     0.070910000000     0.0609099  
C198     C      0.306710000000     0.463280000000     0.251250000000    -0.0281589  
C199     C      0.233380000000     0.606050000000     0.192260000000    -0.0286647  
C200     C      0.229650000000     0.589030000000     0.133360000000    -0.0108678  
C201     C      0.228190000000     0.632200000000     0.170340000000    -0.0107438  
C202     C      0.290410000000     0.552640000000     0.206720000000    -0.0518218  
C203     C      0.248380000000     0.515800000000     0.235930000000    -0.0517046  
C204     C      0.259820000000     0.556350000000     0.200920000000     0.0630267  
C205     C      0.234910000000     0.564320000000     0.156510000000    -0.0286298  
C206     C      0.278960000000     0.512050000000     0.241690000000     0.0641524  
C207     C      0.302380000000     0.504570000000     0.286830000000    -0.0326862  
C208     C      0.300010000000     0.530730000000     0.226950000000    -0.0552945  
C209     C      0.306370000000     0.480080000000     0.310530000000     0.0119828  
C210     C      0.310780000000     0.436800000000     0.273050000000    -0.00999727 
C211     C      0.238780000000     0.537770000000     0.215770000000    -0.0542743  
C212     C      0.277120000000     0.472470000000     0.323170000000     0.0631523  
C213     C      0.939980000000     0.348140000000     0.753490000000    -0.028207   
C214     C      0.061560000000     0.245010000000     0.701620000000    -0.0286076  
C215     C      0.028470000000     0.208150000000     0.660000000000    -0.0108231  
C216     C      0.074530000000     0.213350000000     0.690720000000    -0.0105658  
C217     C      0.996750000000     0.265140000000     0.738040000000    -0.0519912  
C218     C      0.005550000000     0.328230000000     0.719560000000    -0.0516222  
C219     C      0.015070000000     0.270880000000     0.714840000000     0.0631861  
C220     C      0.017460000000     0.240050000000     0.672110000000    -0.028251   
C221     C      0.987160000000     0.322480000000     0.742710000000     0.0640448  
C222     C      0.981990000000     0.353140000000     0.785470000000    -0.0326728  
C223     C      0.982840000000     0.290660000000     0.751910000000    -0.055237   
C224     C      0.970110000000     0.385070000000     0.797230000000     0.0118788  
C225     C      0.926270000000     0.379820000000     0.763440000000    -0.00994585 
C226     C      0.019410000000     0.302710000000     0.705660000000    -0.0543806  
C227     C      0.986730000000     0.412250000000     0.785030000000     0.0631212  
C228     C      0.693020000000     0.265860000000     0.995800000000    -0.028453   
C229     C      0.827660000000     0.336680000000     0.932040000000    -0.0288251  
C230     C      0.804390000000     0.354600000000     0.877370000000    -0.0106268  
C231     C      0.849290000000     0.343680000000     0.908010000000    -0.0104909  
C232     C      0.771920000000     0.280210000000     0.943900000000    -0.0519961  
C233     C      0.748890000000     0.322170000000     0.984160000000    -0.0516263  
C234     C      0.779580000000     0.312860000000     0.942960000000     0.0630177  
C235     C      0.784280000000     0.347260000000     0.902440000000    -0.0287126  
C236     C      0.741200000000     0.289530000000     0.985080000000     0.0638926  
C237     C      0.735990000000     0.255100000000     0.025570000000    -0.0326517  
C238     C      0.752900000000     0.268530000000     0.964750000000    -0.0552582  
C239     C      0.715900000000     0.248350000000     0.050950000000     0.0120654  
C240     C      0.670990000000     0.259900000000     0.019700000000    -0.00962234 
C241     C      0.767910000000     0.333840000000     0.963310000000    -0.0544497  
C242     C      0.715380000000     0.276480000000     0.069590000000     0.0615937  
C243     C      0.776880000000     0.520670000000     0.788820000000    -0.0281845  
C244     C      0.720060000000     0.578440000000     0.653810000000    -0.0289667  
C245     C      0.655870000000     0.585270000000     0.663590000000    -0.0104582  
C246     C      0.698260000000     0.579860000000     0.629180000000    -0.0104218  
C247     C      0.732310000000     0.526650000000     0.708200000000    -0.0518497  
C248     C      0.760650000000     0.577050000000     0.736450000000    -0.0516796  
C249     C      0.725830000000     0.558480000000     0.700820000000     0.0630409  
C250     C      0.678940000000     0.583550000000     0.687190000000    -0.0287892  
C251     C      0.767120000000     0.545220000000     0.743840000000     0.0641689  
C252     C      0.816540000000     0.524490000000     0.753950000000    -0.0325506  
C253     C      0.752860000000     0.519960000000     0.729440000000    -0.0551729  
C254     C      0.841070000000     0.523100000000     0.776390000000     0.011936   
C255     C      0.799750000000     0.519240000000     0.812610000000    -0.0100765  
C256     C      0.740270000000     0.583740000000     0.715070000000    -0.0542043  
C257     C      0.852200000000     0.555660000000     0.782570000000     0.0619467  
C258     C      0.977840000000     0.520180000000     0.919120000000    -0.0278538  
C259     C      0.043360000000     0.575200000000     0.051270000000    -0.028929   
C260     C      0.105520000000     0.579420000000     0.032820000000    -0.0103609  
C261     C      0.068760000000     0.577660000000     0.072680000000    -0.0104941  
C262     C      0.024960000000     0.520850000000     0.998230000000    -0.0521128  
C263     C      0.991090000000     0.570370000000     0.974420000000    -0.0513909  
C264     C      0.030360000000     0.552740000000     0.006190000000     0.0634332  
C265     C      0.079040000000     0.577150000000     0.012640000000    -0.0286879  
C266     C      0.985870000000     0.538520000000     0.966270000000     0.064157   
C267     C      0.939540000000     0.511000000000     0.954420000000    -0.0326819  
C268     C      0.002960000000     0.513700000000     0.978400000000    -0.054832   
C269     C      0.914630000000     0.509110000000     0.932280000000     0.012031   
C270     C      0.954700000000     0.519290000000     0.895630000000    -0.0103355  
C271     C      0.013170000000     0.577540000000     0.994150000000    -0.0543379  
C272     C      0.898080000000     0.539710000000     0.931080000000     0.0618992  
Cd1      Cd     0.881770000000     0.440580000000     0.847390000000     0.50795    
Cd2      Cd     0.145100000000     0.665790000000     0.101100000000     0.506468   
Cd3      Cd     0.383620000000     0.915960000000     0.838640000000     0.507997   
Cd4      Cd     0.632430000000     0.174320000000     0.088830000000     0.507715   
Cd5      Cd     0.374610000000     0.393540000000     0.354350000000     0.507627   
Cd6      Cd     0.630310000000     0.668000000000     0.586430000000     0.506366   
Cd7      Cd     0.877370000000     0.914530000000     0.335620000000     0.506864   
Cd8      Cd     0.112550000000     0.154060000000     0.603060000000     0.507355   
H1       H      0.957480000000     0.035650000000     0.437790000000     0.0454345  
H2       H      0.010420000000     0.048220000000     0.530730000000     0.0396171  
H3       H      0.051980000000     0.105510000000     0.468460000000     0.0435126  
H4       H      0.977830000000     0.919280000000     0.410970000000     0.0432614  
H5       H      0.012870000000     0.102010000000     0.549600000000     0.0488358  
H6       H      0.000190000000     0.011360000000     0.382860000000     0.0392746  
H7       H      0.971610000000     0.954180000000     0.451250000000     0.0389529  
H8       H      0.967280000000     0.979900000000     0.350480000000     0.0490855  
H9       H      0.082000000000     0.134030000000     0.505930000000     0.0470863  
H10      H      0.974940000000     0.075690000000     0.471680000000     0.0514925  
H11      H      0.038980000000     0.076980000000     0.568030000000     0.050362   
H12      H      0.042450000000     0.986550000000     0.443480000000     0.0487095  
H13      H      0.050530000000     0.046260000000     0.526100000000     0.0429394  
H14      H      0.938720000000     0.921780000000     0.419810000000     0.0498449  
H15      H      0.961100000000     0.012560000000     0.392540000000     0.0431457  
H16      H      0.944040000000     0.978370000000     0.433380000000     0.0436354  
H17      H      0.059750000000     0.026360000000     0.477740000000     0.0453528  
H18      H      0.074540000000     0.079790000000     0.490010000000     0.0427621  
H19      H      0.995950000000     0.956090000000     0.366850000000     0.0430272  
H20      H      0.696830000000     0.788730000000     0.470950000000     0.0455751  
H21      H      0.781140000000     0.869560000000     0.448110000000     0.0393533  
H22      H      0.761750000000     0.806250000000     0.380920000000     0.0441628  
H23      H      0.740850000000     0.721810000000     0.549500000000     0.0436613  
H24      H      0.774250000000     0.902250000000     0.406670000000     0.0481074  
H25      H      0.717350000000     0.709290000000     0.465320000000     0.0393053  
H26      H      0.740300000000     0.775350000000     0.529350000000     0.0387292  
H27      H      0.686450000000     0.677320000000     0.499050000000     0.0500177  
H28      H      0.794790000000     0.839260000000     0.349230000000     0.0491309  
H29      H      0.713100000000     0.828940000000     0.436620000000     0.0516156  
H30      H      0.812870000000     0.903680000000     0.417090000000     0.0504224  
H31      H      0.786610000000     0.750340000000     0.473960000000     0.0485151  
H32      H      0.811550000000     0.847510000000     0.432250000000     0.0430243  
H33      H      0.709970000000     0.744100000000     0.563830000000     0.0494571  
H34      H      0.687830000000     0.732490000000     0.481390000000     0.043472   
H35      H      0.701430000000     0.771590000000     0.519390000000     0.0430211  
H36      H      0.802870000000     0.790520000000     0.439660000000     0.0451646  
H37      H      0.799890000000     0.810170000000     0.392480000000     0.043829   
H38      H      0.725660000000     0.678550000000     0.507670000000     0.0439253  
H39      H      0.252650000000     0.307380000000     0.536810000000     0.048243   
H40      H      0.245770000000     0.343140000000     0.435450000000     0.0403772  
H41      H      0.314720000000     0.275280000000     0.451490000000     0.0437803  
H42      H      0.170670000000     0.273370000000     0.577800000000     0.0431724  
H43      H      0.270700000000     0.335320000000     0.391340000000     0.0502156  
H44      H      0.246150000000     0.224600000000     0.546920000000     0.0390784  
H45      H      0.174560000000     0.288660000000     0.529040000000     0.0395493  
H46      H      0.212490000000     0.191460000000     0.577110000000     0.0498508  
H47      H      0.349820000000     0.306950000000     0.420350000000     0.0487095  
H48      H      0.281010000000     0.327790000000     0.496610000000     0.0445543  
H49      H      0.280310000000     0.374460000000     0.404260000000     0.0518305  
H50      H      0.209630000000     0.237460000000     0.483760000000     0.0460428  
H51      H      0.279890000000     0.355970000000     0.452320000000     0.0417806  
H52      H      0.139850000000     0.256080000000     0.558850000000     0.0505071  
H53      H      0.213920000000     0.209290000000     0.528410000000     0.0441027  
H54      H      0.171330000000     0.247410000000     0.517750000000     0.0442018  
H55      H      0.237780000000     0.258060000000     0.443560000000     0.0525274  
H56      H      0.319810000000     0.316600000000     0.461240000000     0.0424315  
H57      H      0.217280000000     0.231960000000     0.589420000000     0.0429875  
H58      H      0.440380000000     0.538630000000     0.463630000000     0.0449932  
H59      H      0.516650000000     0.554340000000     0.544700000000     0.0390251  
H60      H      0.531080000000     0.616230000000     0.475540000000     0.0432901  
H61      H      0.460920000000     0.424410000000     0.431020000000     0.0456364  
H62      H      0.520000000000     0.608270000000     0.563400000000     0.0482521  
H63      H      0.474200000000     0.520390000000     0.401370000000     0.0388408  
H64      H      0.458250000000     0.459680000000     0.470850000000     0.038595   
H65      H      0.438650000000     0.487420000000     0.372380000000     0.0491867  
H66      H      0.568330000000     0.648220000000     0.503920000000     0.047878   
H67      H      0.462550000000     0.579140000000     0.494720000000     0.0514093  
H68      H      0.552830000000     0.586210000000     0.573500000000     0.0492034  
H69      H      0.527640000000     0.496280000000     0.451300000000     0.0485134  
H70      H      0.553590000000     0.556870000000     0.529510000000     0.041566   
H71      H      0.422550000000     0.426480000000     0.442170000000     0.0490489  
H72      H      0.436920000000     0.517620000000     0.415770000000     0.0419585  
H73      H      0.427650000000     0.482370000000     0.456100000000     0.0415562  
H74      H      0.549830000000     0.536820000000     0.482270000000     0.0444949  
H75      H      0.561870000000     0.593290000000     0.489180000000     0.0426568  
H76      H      0.472060000000     0.466570000000     0.382790000000     0.0454206  
H77      H      0.759770000000     0.001350000000     0.237450000000     0.0469102  
H78      H      0.689700000000     0.099770000000     0.214860000000     0.0396445  
H79      H      0.744710000000     0.067720000000     0.148180000000     0.0434008  
H80      H      0.832830000000     0.040830000000     0.310400000000     0.0433639  
H81      H      0.656010000000     0.091100000000     0.176220000000     0.0487126  
H82      H      0.834700000000     0.020250000000     0.224780000000     0.0394548  
H83      H      0.781050000000     0.044370000000     0.294900000000     0.039631   
H84      H      0.866270000000     0.984090000000     0.254260000000     0.050896   
H85      H      0.714680000000     0.101820000000     0.114650000000     0.0476198  
H86      H      0.721330000000     0.021070000000     0.205070000000     0.0526638  
H87      H      0.659580000000     0.133600000000     0.181650000000     0.0494586  
H88      H      0.801860000000     0.094730000000     0.237070000000     0.048425   
H89      H      0.711780000000     0.128470000000     0.195510000000     0.0417583  
H90      H      0.811830000000     0.008180000000     0.325310000000     0.0502963  
H91      H      0.813270000000     0.988760000000     0.241350000000     0.0449094  
H92      H      0.781250000000     0.003150000000     0.283150000000     0.0446982  
H93      H      0.763510000000     0.114370000000     0.204470000000     0.0448355  
H94      H      0.743270000000     0.109740000000     0.156680000000     0.0427916  
H95      H      0.867470000000     0.025470000000     0.265030000000     0.0435176  
H96      H      0.529650000000     0.234300000000     0.216700000000     0.0456787  
H97      H      0.502370000000     0.330530000000     0.280270000000     0.0392139  
H98      H      0.426460000000     0.278560000000     0.251490000000     0.0438977  
H99      H      0.579350000000     0.287510000000     0.133630000000     0.0444098  
H100     H      0.472880000000     0.317690000000     0.321130000000     0.048505   
H101     H      0.498580000000     0.239230000000     0.150740000000     0.0392542  
H102     H      0.572300000000     0.291440000000     0.183710000000     0.0393743  
H103     H      0.532700000000     0.210580000000     0.117510000000     0.0501009  
H104     H      0.393660000000     0.308900000000     0.285500000000     0.0494158  
H105     H      0.500820000000     0.249160000000     0.258390000000     0.0518969  
H106     H      0.470570000000     0.360120000000     0.314730000000     0.0493014  
H107     H      0.497640000000     0.319350000000     0.174710000000     0.0483453  
H108     H      0.471690000000     0.352080000000     0.264370000000     0.0417366  
H109     H      0.607260000000     0.263510000000     0.150860000000     0.051272   
H110     H      0.528150000000     0.217330000000     0.168040000000     0.0436689  
H111     H      0.571890000000     0.248270000000     0.187540000000     0.043531   
H112     H      0.468650000000     0.334090000000     0.216340000000     0.044447   
H113     H      0.427320000000     0.321520000000     0.247740000000     0.042731   
H114     H      0.531140000000     0.253310000000     0.112020000000     0.0438474  
H115     H      0.253530000000     0.969710000000     0.727510000000     0.0454994  
H116     H      0.166110000000     0.048860000000     0.709140000000     0.0393709  
H117     H      0.227210000000     0.041590000000     0.641400000000     0.0434178  
H118     H      0.309350000000     0.020090000000     0.808730000000     0.0453601  
H119     H      0.137020000000     0.039780000000     0.667060000000     0.0478459  
H120     H      0.323310000000     0.004960000000     0.722540000000     0.0390163  
H121     H      0.260150000000     0.011920000000     0.788480000000     0.0391176  
H122     H      0.358800000000     0.975140000000     0.753680000000     0.0500071  
H123     H      0.192130000000     0.074200000000     0.611330000000     0.0481905  
H124     H      0.213770000000     0.983350000000     0.694080000000     0.0514152  
H125     H      0.130110000000     0.079720000000     0.679680000000     0.0500324  
H126     H      0.275300000000     0.070270000000     0.736020000000     0.0486452  
H127     H      0.182170000000     0.085290000000     0.695130000000     0.0430353  
H128     H      0.294940000000     0.982020000000     0.820310000000     0.0508587  
H129     H      0.307490000000     0.968530000000     0.736740000000     0.0432586  
H130     H      0.270270000000     0.972620000000     0.775580000000     0.0429576  
H131     H      0.235670000000     0.083900000000     0.702550000000     0.0449406  
H132     H      0.218400000000     0.080750000000     0.654940000000     0.0435432  
H133     H      0.351290000000     0.015580000000     0.764890000000     0.0443608  
H134     H      0.526970000000     0.743140000000     0.702830000000     0.0456851  
H135     H      0.509730000000     0.826290000000     0.784580000000     0.0391561  
H136     H      0.439720000000     0.818770000000     0.724910000000     0.0434106  
H137     H      0.616850000000     0.784560000000     0.649930000000     0.0432148  
H138     H      0.464220000000     0.817600000000     0.810930000000     0.0479674  
H139     H      0.523840000000     0.781960000000     0.638070000000     0.039929   
H140     H      0.595530000000     0.778450000000     0.696290000000     0.0387804  
H141     H      0.553400000000     0.749140000000     0.604140000000     0.0514465  
H142     H      0.405870000000     0.851220000000     0.756260000000     0.0479233  
H143     H      0.491730000000     0.759060000000     0.739640000000     0.0517102  
H144     H      0.476330000000     0.858290000000     0.816250000000     0.0495797  
H145     H      0.543140000000     0.842980000000     0.683670000000     0.0482765  
H146     H      0.495040000000     0.862330000000     0.768700000000     0.0417101  
H147     H      0.626010000000     0.745330000000     0.663160000000     0.049579   
H148     H      0.534640000000     0.743320000000     0.651970000000     0.0442778  
H149     H      0.577470000000     0.741210000000     0.686720000000     0.0432967  
H150     H      0.507530000000     0.858880000000     0.720220000000     0.0446175  
H151     H      0.454000000000     0.857730000000     0.734120000000     0.0430097  
H152     H      0.570680000000     0.787010000000     0.612480000000     0.0439414  
H153     H      0.512680000000     0.102630000000     0.973380000000     0.0450413  
H154     H      0.498240000000     0.025010000000     0.887990000000     0.0389997  
H155     H      0.437470000000     0.011010000000     0.955070000000     0.0433295  
H156     H      0.615850000000     0.075510000000     0.010680000000     0.0455752  
H157     H      0.448710000000     0.025800000000     0.867570000000     0.0476531  
H158     H      0.525540000000     0.060040000000     0.034430000000     0.0395113  
H159     H      0.586080000000     0.081630000000     0.968770000000     0.0386948  
H160     H      0.554770000000     0.095090000000     0.067040000000     0.0509403  
H161     H      0.406120000000     0.974610000000     0.924630000000     0.0477584  
H162     H      0.475560000000     0.082540000000     0.939800000000     0.0513298  
H163     H      0.467140000000     0.989330000000     0.857300000000     0.0494687  
H164     H      0.548270000000     0.006780000000     0.982520000000     0.0490718  
H165     H      0.492870000000     0.985120000000     0.901910000000     0.0417844  
H166     H      0.615830000000     0.117160000000     0.000750000000     0.0496539  
H167     H      0.528740000000     0.101070000000     0.022540000000     0.042866   
H168     H      0.564330000000     0.113780000000     0.983920000000     0.0421212  
H169     H      0.510940000000     0.986630000000     0.949170000000     0.0448276  
H170     H      0.457200000000     0.977140000000     0.940810000000     0.0429693  
H171     H      0.575370000000     0.060890000000     0.054520000000     0.0463303  
H172     H      0.992300000000     0.723030000000     0.196090000000     0.0448426  
H173     H      0.965350000000     0.780300000000     0.290650000000     0.0393354  
H174     H      0.928610000000     0.823300000000     0.217860000000     0.0435963  
H175     H      0.105510000000     0.731820000000     0.192510000000     0.0462428  
H176     H      0.912270000000     0.788510000000     0.299170000000     0.0478869  
H177     H      0.030160000000     0.774850000000     0.151500000000     0.03927    
H178     H      0.062210000000     0.722950000000     0.221540000000     0.0388852  
H179     H      0.063580000000     0.742430000000     0.119960000000     0.0496803  
H180     H      0.896830000000     0.859600000000     0.247770000000     0.0488101  
H181     H      0.950160000000     0.743280000000     0.224080000000     0.0513668  
H182     H      0.933450000000     0.815180000000     0.321020000000     0.049334   
H183     H      0.043480000000     0.807750000000     0.216630000000     0.0492519  
H184     H      0.971380000000     0.822690000000     0.284860000000     0.0423085  
H185     H      0.095580000000     0.690100000000     0.190200000000     0.0497707  
H186     H      0.023900000000     0.732060000000     0.153620000000     0.0417887  
H187     H      0.042490000000     0.701960000000     0.194200000000     0.0413817  
H188     H      0.001250000000     0.828270000000     0.244150000000     0.0450595  
H189     H      0.949460000000     0.847950000000     0.241750000000     0.0436689  
H190     H      0.083220000000     0.768180000000     0.143820000000     0.0467969  
H191     H      0.265880000000     0.849700000000     0.957010000000     0.0456005  
H192     H      0.181320000000     0.765760000000     0.982590000000     0.0394746  
H193     H      0.255720000000     0.769900000000     0.037770000000     0.0432408  
H194     H      0.308350000000     0.811640000000     0.864900000000     0.045695   
H195     H      0.160760000000     0.771710000000     0.029020000000     0.0484829  
H196     H      0.334800000000     0.811400000000     0.949620000000     0.0391828  
H197     H      0.262840000000     0.817930000000     0.891960000000     0.0392577  
H198     H      0.367120000000     0.844820000000     0.918340000000     0.0503634  
H199     H      0.227800000000     0.735340000000     0.072290000000     0.0472421  
H200     H      0.232040000000     0.832040000000     0.994400000000     0.051707   
H201     H      0.152870000000     0.731830000000     0.016760000000     0.0498357  
H202     H      0.283650000000     0.750760000000     0.935720000000     0.0489034  
H203     H      0.200420000000     0.729030000000     0.991860000000     0.0418472  
H204     H      0.294420000000     0.851790000000     0.860130000000     0.0505472  
H205     H      0.318930000000     0.850380000000     0.942110000000     0.0433995  
H206     H      0.276540000000     0.854240000000     0.908170000000     0.042877   
H207     H      0.250100000000     0.733100000000     0.973320000000     0.0446933  
H208     H      0.243770000000     0.731660000000     0.024370000000     0.0427578  
H209     H      0.356160000000     0.807040000000     0.903300000000     0.0451033  
H210     H      0.215000000000     0.540280000000     0.211810000000     0.0452549  
H211     H      0.295820000000     0.452580000000     0.232520000000     0.0390538  
H212     H      0.288610000000     0.525200000000     0.294360000000     0.043142   
H213     H      0.251720000000     0.595800000000     0.124300000000     0.0437451  
H214     H      0.288980000000     0.424230000000     0.275910000000     0.0493416  
H215     H      0.245870000000     0.616850000000     0.210050000000     0.0392238  
H216     H      0.248570000000     0.544260000000     0.147850000000     0.0385625  
H217     H      0.213660000000     0.651190000000     0.179470000000     0.0508881  
H218     H      0.320390000000     0.491530000000     0.326950000000     0.0471589  
H219     H      0.231950000000     0.501660000000     0.247170000000     0.0517752  
H220     H      0.327070000000     0.418900000000     0.264840000000     0.0492765  
H221     H      0.306840000000     0.566860000000     0.195540000000     0.0481743  
H222     H      0.329140000000     0.472560000000     0.244950000000     0.0407234  
H223     H      0.216080000000     0.577690000000     0.116580000000     0.0490408  
H224     H      0.211290000000     0.597440000000     0.200110000000     0.04326    
H225     H      0.212880000000     0.554390000000     0.163270000000     0.0424725  
H226     H      0.323760000000     0.528380000000     0.231090000000     0.0442625  
H227     H      0.324790000000     0.514280000000     0.280970000000     0.0420022  
H228     H      0.250160000000     0.643340000000     0.165110000000     0.0445213  
H229     H      0.033370000000     0.307790000000     0.687720000000     0.0450612  
H230     H      0.933530000000     0.344430000000     0.731280000000     0.0389455  
H231     H      0.006910000000     0.352540000000     0.787230000000     0.0430622  
H232     H      0.017110000000     0.188150000000     0.671200000000     0.0452929  
H233     H      0.932280000000     0.399040000000     0.748310000000     0.0491725  
H234     H      0.069430000000     0.248550000000     0.723450000000     0.0386479  
H235     H      0.992490000000     0.239950000000     0.671950000000     0.0389783  
H236     H      0.099340000000     0.215650000000     0.689470000000     0.0488151  
H237     H      0.974500000000     0.385200000000     0.820070000000     0.04714    
H238     H      0.009000000000     0.352580000000     0.712210000000     0.0515793  
H239     H      0.901440000000     0.377390000000     0.763290000000     0.0488891  
H240     H      0.993150000000     0.240770000000     0.745280000000     0.0482024  
H241     H      0.930480000000     0.327970000000     0.765980000000     0.0407796  
H242     H      0.021690000000     0.206840000000     0.637710000000     0.0507318  
H243     H      0.070300000000     0.265210000000     0.688710000000     0.0419307  
H244     H      0.025280000000     0.260140000000     0.658560000000     0.0425606  
H245     H      0.968640000000     0.285550000000     0.769670000000     0.0440356  
H246     H      0.973050000000     0.333060000000     0.798410000000     0.0416032  
H247     H      0.069360000000     0.194010000000     0.706000000000     0.0447316  
H248     H      0.773460000000     0.359170000000     0.963070000000     0.0455774  
H249     H      0.682790000000     0.283580000000     0.981210000000     0.0389253  
H250     H      0.758100000000     0.264450000000     0.032770000000     0.0431492  
H251     H      0.806210000000     0.332520000000     0.864390000000     0.0429033  
H252     H      0.664030000000     0.283510000000     0.028470000000     0.0479366  
H253     H      0.838270000000     0.318680000000     0.946110000000     0.0387637  
H254     H      0.762770000000     0.337080000000     0.894610000000     0.0384886  
H255     H      0.869910000000     0.355000000000     0.916610000000     0.0492663  
H256     H      0.726090000000     0.228100000000     0.062780000000     0.0475453  
H257     H      0.740070000000     0.338580000000     0.999660000000     0.0515673  
H258     H      0.650600000000     0.248120000000     0.011100000000     0.0492833  
H259     H      0.780730000000     0.263800000000     0.928390000000     0.0478938  
H260     H      0.696650000000     0.242970000000     0.984220000000     0.0415352  
H261     H      0.793550000000     0.373540000000     0.864490000000     0.0496319  
H262     H      0.823930000000     0.359200000000     0.944140000000     0.0433232  
H263     H      0.779260000000     0.370090000000     0.913640000000     0.0433305  
H264     H      0.747320000000     0.243210000000     0.965000000000     0.0443469  
H265     H      0.740250000000     0.232020000000     0.014460000000     0.0425535  
H266     H      0.855860000000     0.320470000000     0.898250000000     0.0427474  
H267     H      0.735940000000     0.608550000000     0.709570000000     0.0454727  
H268     H      0.756090000000     0.532300000000     0.796770000000     0.0397234  
H269     H      0.824860000000     0.538500000000     0.735700000000     0.0435598  
H270     H      0.646520000000     0.560780000000     0.660230000000     0.0432136  
H271     H      0.802220000000     0.543770000000     0.821560000000     0.0495688  
H272     H      0.739610000000     0.563380000000     0.647670000000     0.0389051  
H273     H      0.668140000000     0.572230000000     0.705670000000     0.0387809  
H274     H      0.709510000000     0.592000000000     0.611360000000     0.0490395  
H275     H      0.860170000000     0.509130000000     0.767700000000     0.0492705  
H276     H      0.771680000000     0.596710000000     0.747140000000     0.0519949  
H277     H      0.790840000000     0.503350000000     0.829320000000     0.0508613  
H278     H      0.721570000000     0.506980000000     0.697270000000     0.0480725  
H279     H      0.771250000000     0.495690000000     0.782300000000     0.0422086  
H280     H      0.637140000000     0.601230000000     0.670110000000     0.0496697  
H281     H      0.728300000000     0.603150000000     0.658460000000     0.0434942  
H282     H      0.685740000000     0.608450000000     0.692940000000     0.0430618  
H283     H      0.757770000000     0.495130000000     0.734440000000     0.0446757  
H284     H      0.811860000000     0.499580000000     0.746570000000     0.0435891  
H285     H      0.692860000000     0.554850000000     0.622690000000     0.0431499  
H286     H      0.017060000000     0.602410000000     0.999740000000     0.0456302  
H287     H      0.996510000000     0.536320000000     0.912630000000     0.040263   
H288     H      0.930010000000     0.520020000000     0.974430000000     0.0434863  
H289     H      0.114660000000     0.554830000000     0.036140000000     0.0433905  
H290     H      0.948510000000     0.544420000000     0.890150000000     0.0503302  
H291     H      0.024730000000     0.561030000000     0.060630000000     0.0390694  
H292     H      0.086690000000     0.564500000000     0.993450000000     0.0388439  
H293     H      0.060630000000     0.591360000000     0.091100000000     0.0488983  
H294     H      0.898510000000     0.490200000000     0.938930000000     0.0475921  
H295     H      0.978260000000     0.589720000000     0.965130000000     0.0519576  
H296     H      0.965250000000     0.508270000000     0.876920000000     0.0528943  
H297     H      0.038140000000     0.501560000000     0.007160000000     0.0484712  
H298     H      0.987160000000     0.495590000000     0.922260000000     0.0429326  
H299     H      0.123440000000     0.594240000000     0.023090000000     0.0498988  
H300     H      0.034890000000     0.599820000000     0.046640000000     0.043095   
H301     H      0.071840000000     0.601870000000     0.006710000000     0.0436743  
H302     H      0.999570000000     0.488910000000     0.972300000000     0.0447151  
H303     H      0.948150000000     0.486260000000     0.958300000000     0.0426432  
H304     H      0.074610000000     0.552980000000     0.079780000000     0.0432417  
N1       N      0.058220000000     0.111730000000     0.539780000000    -0.154732   
N2       N      0.027390000000     0.077450000000     0.497850000000    -0.110409   
N3       N      0.989150000000     0.983570000000     0.418740000000    -0.113026   
N4       N      0.952500000000     0.947210000000     0.382670000000    -0.154119   
N5       N      0.016210000000     0.172000000000     0.502730000000    -0.100124   
N6       N      0.803060000000     0.875840000000     0.380090000000    -0.154298   
N7       N      0.767860000000     0.837300000000     0.415890000000    -0.110553   
N8       N      0.732250000000     0.743000000000     0.495750000000    -0.112998   
N9       N      0.698630000000     0.706740000000     0.534370000000    -0.153479   
N10      N      0.728960000000     0.877260000000     0.350270000000    -0.10077    
N11      N      0.315460000000     0.338870000000     0.405590000000    -0.154059   
N12      N      0.277390000000     0.305740000000     0.442790000000    -0.110354   
N13      N      0.212880000000     0.259710000000     0.537520000000    -0.113019   
N14      N      0.174540000000     0.223180000000     0.571960000000    -0.153501   
N15      N      0.311170000000     0.258480000000     0.378150000000    -0.0975023  
N16      N      0.559250000000     0.622690000000     0.542010000000    -0.154368   
N17      N      0.519800000000     0.585160000000     0.509350000000    -0.110516   
N18      N      0.470420000000     0.490000000000     0.436930000000    -0.112771   
N19      N      0.433040000000     0.450900000000     0.403780000000    -0.153182   
N20      N      0.501030000000     0.677360000000     0.520720000000    -0.100791   
N21      N      0.681310000000     0.114650000000     0.145000000000    -0.154626   
N22      N      0.716820000000     0.079370000000     0.182890000000    -0.110329   
N23      N      0.807050000000     0.035930000000     0.258370000000    -0.112943   
N24      N      0.842600000000     0.995720000000     0.292260000000    -0.153325   
N25      N      0.677150000000     0.032820000000     0.120950000000    -0.10057    
N26      N      0.430700000000     0.332560000000     0.305600000000    -0.154297   
N27      N      0.466720000000     0.300870000000     0.265730000000    -0.110486   
N28      N      0.533090000000     0.268560000000     0.167920000000    -0.112992   
N29      N      0.571820000000     0.237530000000     0.130010000000    -0.153287   
N30      N      0.423480000000     0.248420000000     0.321800000000    -0.0982789  
N31      N      0.157360000000     0.076020000000     0.642470000000    -0.15446    
N32      N      0.197780000000     0.041530000000     0.676500000000    -0.110572   
N33      N      0.290640000000     0.012280000000     0.754310000000    -0.112953   
N34      N      0.330810000000     0.980190000000     0.790140000000    -0.153088   
N35      N      0.165940000000     0.999160000000     0.608740000000    -0.101609   
N36      N      0.437090000000     0.852000000000     0.790460000000    -0.15451    
N37      N      0.475730000000     0.818230000000     0.754200000000    -0.110548   
N38      N      0.558510000000     0.783710000000     0.668590000000    -0.113089   
N39      N      0.592540000000     0.747060000000     0.630610000000    -0.15388    
N40      N      0.401090000000     0.775660000000     0.779150000000    -0.101228   
N41      N      0.431520000000     0.984300000000     0.887460000000    -0.154547   
N42      N      0.468090000000     0.022430000000     0.922350000000    -0.110536   
N43      N      0.555450000000     0.066810000000     0.000300000000    -0.112697   
N44      N      0.589660000000     0.104950000000     0.037080000000    -0.152894   
N45      N      0.383980000000     0.049300000000     0.909820000000    -0.101208   
N46      N      0.910290000000     0.837150000000     0.286280000000    -0.15441    
N47      N      0.947300000000     0.798130000000     0.252530000000    -0.11053    
N48      N      0.046580000000     0.752850000000     0.188570000000    -0.112662   
N49      N      0.086380000000     0.718800000000     0.153800000000    -0.152935   
N50      N      0.859390000000     0.790300000000     0.244430000000    -0.100422   
N51      N      0.186650000000     0.735720000000     0.048850000000    -0.154847   
N52      N      0.219030000000     0.772080000000     0.009270000000    -0.110405   
N53      N      0.297710000000     0.810680000000     0.921640000000    -0.112828   
N54      N      0.334190000000     0.847050000000     0.885420000000    -0.153002   
N55      N      0.203900000000     0.810230000000     0.083520000000    -0.100738   
N56      N      0.320350000000     0.450090000000     0.300220000000    -0.154283   
N57      N      0.287900000000     0.489130000000     0.262720000000    -0.110473   
N58      N      0.250790000000     0.579450000000     0.180050000000    -0.113028   
N59      N      0.215300000000     0.618150000000     0.144770000000    -0.153311   
N60      N      0.250170000000     0.465400000000     0.334760000000    -0.100158   
N61      N      0.937780000000     0.388930000000     0.791240000000    -0.154346   
N62      N      0.972810000000     0.349460000000     0.756150000000    -0.1105     
N63      N      0.028590000000     0.243810000000     0.700800000000    -0.112956   
N64      N      0.061170000000     0.204640000000     0.663580000000    -0.153418   
N65      N      0.001990000000     0.437280000000     0.773740000000    -0.0993602  
N66      N      0.684940000000     0.240650000000     0.042130000000    -0.1544     
N67      N      0.721430000000     0.278480000000     0.006920000000    -0.110412   
N68      N      0.799180000000     0.324000000000     0.921010000000    -0.113117   
N69      N      0.834660000000     0.363930000000     0.886740000000    -0.153693   
N70      N      0.714840000000     0.302440000000     0.086710000000    -0.100703   
N71      N      0.829230000000     0.508380000000     0.802200000000    -0.153912   
N72      N      0.789160000000     0.539330000000     0.765320000000    -0.110438   
N73      N      0.705020000000     0.564360000000     0.678300000000    -0.113081   
N74      N      0.670320000000     0.596120000000     0.637580000000    -0.15404    
N75      N      0.862380000000     0.585680000000     0.788300000000    -0.0992838  
N76      N      0.927390000000     0.501970000000     0.904500000000    -0.153933   
N77      N      0.963850000000     0.532300000000     0.944850000000    -0.110383   
N78      N      0.054250000000     0.559270000000     0.025740000000    -0.113065   
N79      N      0.095480000000     0.592390000000     0.059860000000    -0.15391    
N80      N      0.882900000000     0.567940000000     0.929920000000    -0.099272   
O1       O      0.871670000000     0.477830000000     0.808740000000    -0.248136   
O2       O      0.838000000000     0.405440000000     0.855090000000    -0.2503     
O3       O      0.888320000000     0.468350000000     0.892630000000    -0.249924   
O4       O      0.929260000000     0.415240000000     0.832790000000    -0.24728    
O5       O      0.892370000000     0.410660000000     0.804220000000    -0.251424   
O6       O      0.922630000000     0.476600000000     0.862050000000    -0.247005   
O7       O      0.836840000000     0.474350000000     0.839520000000    -0.248102   
O8       O      0.876310000000     0.396010000000     0.881000000000    -0.252861   
O9       O      0.182120000000     0.622380000000     0.108120000000    -0.252841   
O10      O      0.106410000000     0.706650000000     0.110800000000    -0.251694   
O11      O      0.134540000000     0.628440000000     0.062530000000    -0.249737   
O12      O      0.148140000000     0.700900000000     0.059560000000    -0.249258   
O13      O      0.185460000000     0.703260000000     0.087720000000    -0.253284   
O14      O      0.103830000000     0.626390000000     0.097010000000    -0.254798   
O15      O      0.180980000000     0.659060000000     0.139670000000    -0.245193   
O16      O      0.121210000000     0.678920000000     0.146030000000    -0.247261   
O17      O      0.429630000000     0.885170000000     0.828340000000    -0.250592   
O18      O      0.371980000000     0.947670000000     0.796670000000    -0.249905   
O19      O      0.424620000000     0.954460000000     0.847470000000    -0.251355   
O20      O      0.375860000000     0.878500000000     0.877750000000    -0.250226   
O21      O      0.339370000000     0.882270000000     0.848660000000    -0.249159   
O22      O      0.393200000000     0.947950000000     0.880960000000    -0.249251   
O23      O      0.393850000000     0.880750000000     0.798560000000    -0.24942    
O24      O      0.339810000000     0.950720000000     0.829950000000    -0.24914    
O25      O      0.625010000000     0.144310000000     0.044960000000    -0.250118   
O26      O      0.582160000000     0.194530000000     0.101300000000    -0.248743   
O27      O      0.640970000000     0.213390000000     0.051010000000    -0.251342   
O28      O      0.672160000000     0.135690000000     0.101390000000    -0.250504   
O29      O      0.644550000000     0.151940000000     0.135250000000    -0.25224    
O30      O      0.678860000000     0.203610000000     0.077430000000    -0.248809   
O31      O      0.594680000000     0.132800000000     0.078310000000    -0.248603   
O32      O      0.619390000000     0.219800000000     0.119430000000    -0.250359   
O33      O      0.349170000000     0.405510000000     0.309930000000    -0.250866   
O34      O      0.400080000000     0.408750000000     0.398040000000    -0.251986   
O35      O      0.423040000000     0.375300000000     0.335300000000    -0.253307   
O36      O      0.361420000000     0.347970000000     0.385080000000    -0.246937   
O37      O      0.326650000000     0.382780000000     0.378210000000    -0.250984   
O38      O      0.384490000000     0.348290000000     0.322230000000    -0.244646   
O39      O      0.344860000000     0.441470000000     0.341870000000    -0.247121   
O40      O      0.408600000000     0.439240000000     0.362690000000    -0.248978   
O41      O      0.668740000000     0.627400000000     0.597980000000    -0.254787   
O42      O      0.597050000000     0.660200000000     0.545870000000    -0.24554    
O43      O      0.660450000000     0.670860000000     0.543300000000    -0.247641   
O44      O      0.628420000000     0.707890000000     0.624500000000    -0.249894   
O45      O      0.592790000000     0.710600000000     0.594490000000    -0.252807   
O46      O      0.671390000000     0.705300000000     0.575130000000    -0.25283    
O47      O      0.633500000000     0.633340000000     0.628070000000    -0.249429   
O48      O      0.589910000000     0.628160000000     0.580400000000    -0.252413   
O49      O      0.904570000000     0.863630000000     0.328160000000    -0.253842   
O50      O      0.923660000000     0.946150000000     0.342840000000    -0.255689   
O51      O      0.833340000000     0.879200000000     0.341250000000    -0.251268   
O52      O      0.872670000000     0.950860000000     0.295280000000    -0.2458     
O53      O      0.845700000000     0.962950000000     0.330880000000    -0.252466   
O54      O      0.843380000000     0.910120000000     0.375920000000    -0.2472     
O55      O      0.884180000000     0.884500000000     0.291810000000    -0.245159   
O56      O      0.909610000000     0.917030000000     0.377400000000    -0.249735   
O57      O      0.121110000000     0.115390000000     0.641030000000    -0.250386   
O58      O      0.163000000000     0.174150000000     0.591490000000    -0.249244   
O59      O      0.066450000000     0.178930000000     0.621340000000    -0.250254   
O60      O      0.073920000000     0.117070000000     0.585270000000    -0.252076   
O61      O      0.095350000000     0.146440000000     0.554360000000    -0.25135    
O62      O      0.105530000000     0.183380000000     0.647290000000    -0.251555   
O63      O      0.150400000000     0.110860000000     0.605660000000    -0.247692   
O64      O      0.126590000000     0.206220000000     0.582150000000    -0.250571   


