data_structure

_audit_creation_method RASPA-1.0
_audit_creation_date 2023-6-5
_audit_author_name 'Poobodin Mano'

_cell_length_a    57.6198
_cell_length_b    56.3524
_cell_length_c    30.1517
_cell_angle_alpha 90.0309
_cell_angle_beta  89.9088
_cell_angle_gamma 90
_cell_volume      97902.9

_symmetry_cell_setting          triclinic
_symmetry_space_group_name_Hall 'P 1'
_symmetry_space_group_name_H-M  'P 1'
_symmetry_Int_Tables_number     1

_symmetry_equiv_pos_as_xyz 'x,y,z'

loop_
_atom_site_label
_atom_site_type_symbol
_atom_site_fract_x
_atom_site_fract_y
_atom_site_fract_z
_atom_site_charge
C1       C      0.382180000000     0.317980000000     0.978730000000     0.337853   
C2       C      0.310640000000     0.315360000000     0.063580000000     0.340663   
C3       C      0.338400000000     0.382760000000     0.979020000000     0.338542   
C4       C      0.305330000000     0.309420000000     0.917600000000     0.338101   
C5       C      0.317880000000     0.628680000000     0.989070000000     0.341463   
C6       C      0.306630000000     0.699620000000     0.073200000000     0.338212   
C7       C      0.376340000000     0.678820000000     0.987120000000     0.33854    
C8       C      0.305170000000     0.707790000000     0.924780000000     0.340863   
C9       C      0.694110000000     0.318130000000     0.924320000000     0.340767   
C10      C      0.622930000000     0.333130000000     0.988300000000     0.341174   
C11      C      0.696330000000     0.323430000000     0.075280000000     0.341541   
C12      C      0.676100000000     0.393020000000     0.003280000000     0.341107   
C13      C      0.660300000000     0.640090000000     0.987740000000     0.338692   
C14      C      0.693310000000     0.713890000000     0.926550000000     0.340825   
C15      C      0.615540000000     0.702960000000     0.975010000000     0.342393   
C16      C      0.682610000000     0.707420000000     0.074970000000     0.338934   
C17      C      0.814840000000     0.205450000000     0.583750000000     0.337123   
C18      C      0.813260000000     0.136490000000     0.482200000000     0.33721    
C19      C      0.803350000000     0.214760000000     0.437740000000     0.339664   
C20      C      0.877980000000     0.182040000000     0.499640000000     0.341373   
C21      C      0.804400000000     0.815990000000     0.560880000000     0.337348   
C22      C      0.878590000000     0.834660000000     0.500780000000     0.340943   
C23      C      0.808090000000     0.816240000000     0.413780000000     0.341422   
C24      C      0.824550000000     0.890360000000     0.482270000000     0.340474   
C25      C      0.189420000000     0.817520000000     0.413000000000     0.340238   
C26      C      0.119250000000     0.819650000000     0.504480000000     0.337762   
C27      C      0.196630000000     0.810050000000     0.558530000000     0.338497   
C28      C      0.162830000000     0.884240000000     0.498230000000     0.33857    
C29      C      0.181390000000     0.130120000000     0.489520000000     0.34181    
C30      C      0.190580000000     0.202000000000     0.405750000000     0.337987   
C31      C      0.121090000000     0.178120000000     0.486510000000     0.338844   
C32      C      0.191860000000     0.208260000000     0.554620000000     0.340649   
C33      C      0.176280000000     0.067860000000     0.455710000000    -0.0302954  
C34      C      0.172660000000     0.945270000000     0.537990000000    -0.0285017  
C35      C      0.152270000000     0.921730000000     0.461190000000    -0.01079    
C36      C      0.161560000000     0.920770000000     0.543350000000    -0.0109134  
C37      C      0.151430000000     0.000510000000     0.506630000000    -0.0531495  
C38      C      0.197420000000     0.013470000000     0.489350000000    -0.0526658  
C39      C      0.168170000000     0.982840000000     0.500090000000     0.0625701  
C40      C      0.163800000000     0.946150000000     0.459180000000    -0.0285484  
C41      C      0.180670000000     0.031150000000     0.495860000000     0.0619075  
C42      C      0.183820000000     0.068540000000     0.534880000000    -0.0587079  
C43      C      0.157530000000     0.024470000000     0.504520000000    -0.0551347  
C44      C      0.194120000000     0.093690000000     0.532340000000     0.0935145  
C45      C      0.186800000000     0.092510000000     0.449760000000    -0.0106668  
C46      C      0.191300000000     0.989490000000     0.491370000000    -0.0556197  
C47      C      0.940120000000     0.819940000000     0.472240000000    -0.0299701  
C48      C      0.060650000000     0.822600000000     0.550400000000    -0.0286004  
C49      C      0.083280000000     0.803590000000     0.471460000000    -0.0110694  
C50      C      0.085380000000     0.812800000000     0.553340000000    -0.0109476  
C51      C      0.007120000000     0.798410000000     0.522160000000    -0.0532617  
C52      C      0.992020000000     0.844710000000     0.505340000000    -0.052517   
C53      C      0.023480000000     0.816360000000     0.514880000000     0.062655   
C54      C      0.058680000000     0.813760000000     0.471320000000    -0.0284664  
C55      C      0.975650000000     0.826720000000     0.512240000000     0.0617406  
C56      C      0.938750000000     0.828030000000     0.550640000000    -0.0578572  
C57      C      0.983390000000     0.803460000000     0.520870000000    -0.0550741  
C58      C      0.913910000000     0.838000000000     0.548340000000     0.0935726  
C59      C      0.916090000000     0.830340000000     0.464290000000    -0.0100751  
C60      C      0.015760000000     0.839660000000     0.506610000000    -0.0556674  
C61      C      0.806720000000     0.952570000000     0.510040000000    -0.0298818  
C62      C      0.819620000000     0.076570000000     0.438640000000    -0.0286297  
C63      C      0.792080000000     0.100560000000     0.506340000000    -0.011203   
C64      C      0.811380000000     0.102090000000     0.431240000000    -0.0111849  
C65      C      0.791700000000     0.022480000000     0.456320000000    -0.0531921  
C66      C      0.833830000000     0.006220000000     0.490770000000    -0.0524295  
C67      C      0.808320000000     0.038890000000     0.470670000000     0.0625409  
C68      C      0.801060000000     0.075150000000     0.511400000000    -0.0285207  
C69      C      0.817260000000     0.989800000000     0.476200000000     0.0616027  
C70      C      0.822350000000     0.953030000000     0.435960000000    -0.0579439  
C71      C      0.796020000000     0.998130000000     0.459100000000    -0.0551019  
C72      C      0.831720000000     0.927560000000     0.439510000000     0.0936795  
C73      C      0.815970000000     0.927740000000     0.519530000000    -0.0101041  
C74      C      0.829450000000     0.030570000000     0.488230000000    -0.0557228  
C75      C      0.938980000000     0.180170000000     0.456490000000    -0.0299148  
C76      C      0.060570000000     0.176360000000     0.530070000000    -0.0285675  
C77      C      0.084520000000     0.176590000000     0.444700000000    -0.0110562  
C78      C      0.085650000000     0.167540000000     0.527570000000    -0.0107065  
C79      C      0.009210000000     0.156150000000     0.483110000000    -0.0532587  
C80      C      0.990370000000     0.200700000000     0.502630000000    -0.052533   
C81      C      0.024040000000     0.175420000000     0.490530000000     0.0625267  
C82      C      0.059540000000     0.185030000000     0.451400000000    -0.0282725  
C83      C      0.975530000000     0.181400000000     0.495350000000     0.0616752  
C84      C      0.940370000000     0.170900000000     0.534370000000    -0.057785   
C85      C      0.985160000000     0.159030000000     0.485420000000    -0.0551277  
C86      C      0.914920000000     0.178010000000     0.541990000000     0.0933839  
C87      C      0.913960000000     0.188910000000     0.459060000000    -0.0102228  
C88      C      0.014440000000     0.197830000000     0.500210000000    -0.055666   
C89      C      0.708560000000     0.754410000000     0.834320000000    -0.0303201  
C90      C      0.792920000000     0.775620000000     0.655810000000    -0.0285536  
C91      C      0.769330000000     0.813370000000     0.607340000000    -0.0111079  
C92      C      0.799680000000     0.780500000000     0.607590000000    -0.0107704  
C93      C      0.742000000000     0.756330000000     0.705490000000    -0.0531703  
C94      C      0.759740000000     0.773470000000     0.785640000000    -0.0527294  
C95      C      0.759740000000     0.773290000000     0.704920000000     0.0624917  
C96      C      0.764040000000     0.806930000000     0.655580000000    -0.0283261  
C97      C      0.741960000000     0.756510000000     0.786210000000     0.061714   
C98      C      0.736990000000     0.722820000000     0.834950000000    -0.0584227  
C99      C      0.733120000000     0.747970000000     0.745680000000    -0.0551808  
C100     C      0.730450000000     0.715380000000     0.882440000000     0.0936491  
C101     C      0.701210000000     0.749240000000     0.881960000000    -0.0104913  
C102     C      0.768600000000     0.781860000000     0.745390000000    -0.0557255  
C103     C      0.763200000000     0.802960000000     0.329040000000    -0.0301592  
C104     C      0.725660000000     0.715220000000     0.163700000000    -0.0285679  
C105     C      0.681740000000     0.736360000000     0.136430000000    -0.0111398  
C106     C      0.707490000000     0.699970000000     0.140120000000    -0.0109919  
C107     C      0.726600000000     0.745760000000     0.263510000000    -0.0532707  
C108     C      0.763400000000     0.772440000000     0.229140000000    -0.0526608  
C109     C      0.729990000000     0.746750000000     0.217570000000     0.0626726  
C110     C      0.700930000000     0.750170000000     0.160050000000    -0.0283242  
C111     C      0.759940000000     0.771530000000     0.275100000000     0.0617386  
C112     C      0.788640000000     0.768950000000     0.333260000000    -0.0582758  
C113     C      0.741410000000     0.757990000000     0.292160000000    -0.0550812  
C114     C      0.807420000000     0.782950000000     0.358290000000     0.0935001  
C115     C      0.780750000000     0.818990000000     0.352130000000    -0.0104581  
C116     C      0.748590000000     0.760170000000     0.200480000000    -0.0557061  
C117     C      0.723030000000     0.269800000000     0.860670000000    -0.0301344  
C118     C      0.792380000000     0.250980000000     0.659080000000    -0.0284478  
C119     C      0.801800000000     0.200170000000     0.661250000000    -0.0109819  
C120     C      0.812550000000     0.240790000000     0.632070000000    -0.0110016  
C121     C      0.780040000000     0.255080000000     0.770330000000    -0.0532565  
C122     C      0.733520000000     0.261840000000     0.747230000000    -0.052506   
C123     C      0.772130000000     0.247290000000     0.728930000000     0.0626285  
C124     C      0.782070000000     0.211880000000     0.687290000000    -0.0284522  
C125     C      0.741440000000     0.269710000000     0.788590000000     0.0616241  
C126     C      0.731870000000     0.306800000000     0.824030000000    -0.0581904  
C127     C      0.764920000000     0.266250000000     0.799960000000    -0.0550685  
C128     C      0.712730000000     0.320240000000     0.849160000000     0.0936114  
C129     C      0.703000000000     0.280790000000     0.886710000000    -0.010524   
C130     C      0.748680000000     0.250750000000     0.717510000000    -0.0557595  
C131     C      0.706470000000     0.288940000000     0.179560000000    -0.0299933  
C132     C      0.794590000000     0.256140000000     0.344270000000    -0.0285846  
C133     C      0.766500000000     0.226140000000     0.402100000000    -0.010793   
C134     C      0.802930000000     0.250820000000     0.391380000000    -0.0107973  
C135     C      0.745900000000     0.284800000000     0.301670000000    -0.0532305  
C136     C      0.755600000000     0.262100000000     0.221240000000    -0.0524252  
C137     C      0.760070000000     0.264620000000     0.301360000000     0.0626181  
C138     C      0.759760000000     0.232430000000     0.354480000000    -0.0284616  
C139     C      0.741410000000     0.282290000000     0.221540000000     0.0616271  
C140     C      0.739220000000     0.314940000000     0.169610000000    -0.0578224  
C141     C      0.736570000000     0.293590000000     0.262220000000    -0.0550062  
C142     C      0.731950000000     0.321810000000     0.122250000000     0.0933424  
C143     C      0.697690000000     0.292990000000     0.132530000000    -0.0101095  
C144     C      0.764850000000     0.253240000000     0.260750000000    -0.0556704  
C145     C      0.658790000000     0.454580000000     0.030960000000    -0.030342   
C146     C      0.675880000000     0.578190000000     0.960160000000    -0.0286644  
C147     C      0.642940000000     0.603260000000     0.016870000000    -0.010777   
C148     C      0.667440000000     0.602910000000     0.946770000000    -0.0107352  
C149     C      0.648870000000     0.524090000000     0.972320000000    -0.0533031  
C150     C      0.686510000000     0.509650000000     0.024170000000    -0.0526389  
C151     C      0.662960000000     0.541210000000     0.992480000000     0.0624345  
C152     C      0.652400000000     0.578510000000     0.027160000000    -0.0284791  
C153     C      0.672380000000     0.492520000000     0.004080000000     0.0616301  
C154     C      0.685020000000     0.456440000000     0.968320000000    -0.0583214  
C155     C      0.653510000000     0.499950000000     0.977870000000    -0.0552205  
C156     C      0.694090000000     0.431190000000     0.976670000000     0.0934171  
C157     C      0.666920000000     0.429670000000     0.043260000000    -0.0105945  
C158     C      0.681940000000     0.533820000000     0.018430000000    -0.0557603  
C159     C      0.266200000000     0.721380000000     0.830330000000    -0.0300534  
C160     C      0.239800000000     0.803360000000     0.648140000000    -0.0285319  
C161     C      0.205430000000     0.774290000000     0.602430000000    -0.0108513  
C162     C      0.233520000000     0.808970000000     0.599970000000    -0.0109236  
C163     C      0.263780000000     0.753580000000     0.700080000000    -0.0532186  
C164     C      0.246360000000     0.771950000000     0.779630000000    -0.0525424  
C165     C      0.246170000000     0.770680000000     0.698950000000     0.0626236  
C166     C      0.212780000000     0.770270000000     0.650530000000    -0.0282928  
C167     C      0.263920000000     0.754760000000     0.780770000000     0.061739   
C168     C      0.297050000000     0.750420000000     0.829420000000    -0.0581556  
C169     C      0.272590000000     0.745590000000     0.740540000000    -0.0551014  
C170     C      0.304410000000     0.744460000000     0.877180000000     0.0933377  
C171     C      0.271110000000     0.714630000000     0.878340000000    -0.0104592  
C172     C      0.237460000000     0.779840000000     0.739130000000    -0.0556877  
C173     C      0.204970000000     0.775020000000     0.324670000000    -0.0302014  
C174     C      0.293390000000     0.744740000000     0.158470000000    -0.0284992  
C175     C      0.277740000000     0.697350000000     0.133480000000    -0.0110497  
C176     C      0.310260000000     0.727730000000     0.135510000000    -0.0109288  
C177     C      0.264290000000     0.743360000000     0.259110000000    -0.053075   
C178     C      0.234150000000     0.777520000000     0.224420000000    -0.0526236  
C179     C      0.262620000000     0.746190000000     0.213100000000     0.0626214  
C180     C      0.262270000000     0.715660000000     0.156530000000    -0.0283094  
C181     C      0.235760000000     0.774640000000     0.270450000000     0.0618349  
C182     C      0.235470000000     0.804540000000     0.328040000000    -0.0584037  
C183     C      0.251020000000     0.757410000000     0.287660000000    -0.0550212  
C184     C      0.219900000000     0.822130000000     0.353370000000     0.0934802  
C185     C      0.187820000000     0.791350000000     0.348240000000    -0.0107598  
C186     C      0.247440000000     0.763450000000     0.195840000000    -0.0556216  
C187     C      0.554900000000     0.707120000000     0.007030000000    -0.0304141  
C188     C      0.435000000000     0.683600000000     0.937540000000    -0.0286406  
C189     C      0.414100000000     0.678710000000     0.025280000000    -0.0110022  
C190     C      0.411410000000     0.671370000000     0.942260000000    -0.0108261  
C191     C      0.490230000000     0.670810000000     0.978930000000    -0.0530916  
C192     C      0.501690000000     0.717990000000     0.960250000000    -0.0528216  
C193     C      0.472520000000     0.687510000000     0.973040000000     0.0624409  
C194     C      0.437470000000     0.690740000000     0.016830000000    -0.0282962  
C195     C      0.519420000000     0.701290000000     0.966270000000     0.0619222  
C196     C      0.556370000000     0.696800000000     0.928680000000    -0.0590456  
C197     C      0.513490000000     0.677560000000     0.975720000000    -0.055216   
C198     C      0.580780000000     0.707570000000     0.923860000000     0.0935226  
C199     C      0.578840000000     0.718670000000     0.004570000000    -0.010455   
C200     C      0.478410000000     0.711250000000     0.963690000000    -0.0556217  
C201     C      0.233000000000     0.222860000000     0.645390000000    -0.0299656  
C202     C      0.259890000000     0.302130000000     0.831620000000    -0.0285458  
C203     C      0.298500000000     0.275150000000     0.868650000000    -0.0109781  
C204     C      0.267630000000     0.306920000000     0.879340000000    -0.0108222  
C205     C      0.238150000000     0.251650000000     0.778130000000    -0.0532385  
C206     C      0.250130000000     0.273780000000     0.698320000000    -0.0524579  
C207     C      0.254100000000     0.270390000000     0.778420000000     0.0626105  
C208     C      0.289470000000     0.271950000000     0.821380000000    -0.0283016  
C209     C      0.234240000000     0.254960000000     0.698000000000     0.0616081  
C210     C      0.199620000000     0.248350000000     0.654180000000    -0.058158   
C211     C      0.228320000000     0.243900000000     0.738370000000    -0.0549637  
C212     C      0.190760000000     0.242940000000     0.607110000000     0.0934897  
C213     C      0.226740000000     0.216930000000     0.597570000000    -0.0106063  
C214     C      0.260070000000     0.281450000000     0.738100000000    -0.0557315  
C215     C      0.291090000000     0.272050000000     0.148160000000    -0.0301202  
C216     C      0.206190000000     0.248680000000     0.324670000000    -0.0284325  
C217     C      0.216750000000     0.198840000000     0.341330000000    -0.0109649  
C218     C      0.188320000000     0.233120000000     0.348460000000    -0.0110535  
C219     C      0.230640000000     0.247050000000     0.219340000000    -0.0530964  
C220     C      0.266230000000     0.275800000000     0.252290000000    -0.0525416  
C221     C      0.234420000000     0.248220000000     0.265130000000     0.0626553  
C222     C      0.233360000000     0.215920000000     0.317970000000    -0.0283929  
C223     C      0.262530000000     0.274520000000     0.206450000000     0.0617834  
C224     C      0.264880000000     0.305530000000     0.151170000000    -0.0582372  
C225     C      0.244520000000     0.260050000000     0.190120000000    -0.0550367  
C226     C      0.281770000000     0.321530000000     0.125280000000     0.0935039  
C227     C      0.309580000000     0.286390000000     0.123850000000    -0.0105796  
C228     C      0.252330000000     0.262790000000     0.281530000000    -0.0556574  
C229     C      0.561620000000     0.317380000000     0.018490000000    -0.0299782  
C230     C      0.441690000000     0.318900000000     0.936320000000    -0.0286486  
C231     C      0.417470000000     0.303060000000     0.015960000000    -0.0109462  
C232     C      0.416860000000     0.309400000000     0.933010000000    -0.0109683  
C233     C      0.494300000000     0.294860000000     0.970550000000    -0.0532919  
C234     C      0.509980000000     0.341450000000     0.981660000000    -0.0524094  
C235     C      0.478160000000     0.313300000000     0.974700000000     0.0626497  
C236     C      0.442230000000     0.312850000000     0.016350000000    -0.0285278  
C237     C      0.526130000000     0.323000000000     0.977640000000     0.0616251  
C238     C      0.563030000000     0.322270000000     0.939290000000    -0.057789   
C239     C      0.518090000000     0.299580000000     0.972030000000    -0.0549559  
C240     C      0.587910000000     0.332190000000     0.940030000000     0.0933792  
C241     C      0.585680000000     0.328000000000     0.025240000000    -0.00991574 
C242     C      0.486170000000     0.336730000000     0.980260000000    -0.0557483  
C243     C      0.325240000000     0.566370000000     0.022070000000    -0.0302315  
C244     C      0.327660000000     0.443660000000     0.939590000000    -0.0284891  
C245     C      0.349630000000     0.420370000000     0.015000000000    -0.0109762  
C246     C      0.338770000000     0.419200000000     0.933570000000    -0.0109612  
C247     C      0.349180000000     0.499070000000     0.969280000000    -0.0531719  
C248     C      0.303530000000     0.511810000000     0.990130000000    -0.0527002  
C249     C      0.332670000000     0.481320000000     0.977060000000     0.0625173  
C250     C      0.338020000000     0.444730000000     0.017730000000    -0.0283994  
C251     C      0.320060000000     0.529570000000     0.982430000000     0.0618697  
C252     C      0.315790000000     0.566900000000     0.943720000000    -0.0586282  
C253     C      0.343020000000     0.523000000000     0.971940000000    -0.0551223  
C254     C      0.305370000000     0.591970000000     0.947030000000     0.0935676  
C255     C      0.314680000000     0.590930000000     0.029030000000    -0.0107033  
C256     C      0.309710000000     0.487860000000     0.987540000000    -0.0555564  
Cd1      Cd     0.334000000000     0.331770000000     0.984240000000     0.505255   
Cd2      Cd     0.326310000000     0.679270000000     0.993610000000     0.504865   
Cd3      Cd     0.672170000000     0.341830000000     0.998460000000     0.503194   
Cd4      Cd     0.663620000000     0.691210000000     0.991580000000     0.504849   
Cd5      Cd     0.827720000000     0.184680000000     0.499760000000     0.50482    
Cd6      Cd     0.829000000000     0.839410000000     0.489660000000     0.504195   
Cd7      Cd     0.167250000000     0.833220000000     0.494090000000     0.505352   
Cd8      Cd     0.171210000000     0.180340000000     0.484310000000     0.504774   
H1       H      0.204550000000     0.976180000000     0.486010000000     0.0432798  
H2       H      0.179020000000     0.057660000000     0.424500000000     0.0374307  
H3       H      0.192410000000     0.058850000000     0.562550000000     0.0487083  
H4       H      0.133160000000     0.924220000000     0.463540000000     0.0422378  
H5       H      0.205250000000     0.090460000000     0.439520000000     0.0423709  
H6       H      0.170770000000     0.955060000000     0.569870000000     0.0371229  
H7       H      0.155360000000     0.956620000000     0.432390000000     0.0369757  
H8       H      0.171660000000     0.910540000000     0.568260000000     0.0482838  
H9       H      0.215260000000     0.018330000000     0.482540000000     0.0468566  
H10      H      0.177530000000     0.101460000000     0.422120000000     0.0487804  
H11      H      0.133570000000     0.995650000000     0.513240000000     0.0465649  
H12      H      0.157250000000     0.069620000000     0.461370000000     0.0406114  
H13      H      0.155960000000     0.912150000000     0.429700000000     0.0476152  
H14      H      0.213320000000     0.091770000000     0.530140000000     0.0213077  
H15      H      0.191520000000     0.943080000000     0.530980000000     0.0408333  
H16      H      0.182480000000     0.943960000000     0.450550000000     0.0407701  
H17      H      0.144200000000     0.037740000000     0.509480000000     0.0423957  
H18      H      0.164950000000     0.069790000000     0.542620000000     0.048032   
H19      H      0.143680000000     0.923090000000     0.556610000000     0.0425664  
H20      H      0.200250000000     0.119630000000     0.580550000000     0.105305   
H21      H      0.171060000000     0.111570000000     0.574680000000     0.102063   
H22      H      0.028050000000     0.853840000000     0.500740000000     0.0433058  
H23      H      0.950480000000     0.822090000000     0.441280000000     0.0371954  
H24      H      0.947920000000     0.836790000000     0.578720000000     0.04797    
H25      H      0.082140000000     0.783970000000     0.474710000000     0.0429825  
H26      H      0.918080000000     0.848310000000     0.449510000000     0.0435726  
H27      H      0.051920000000     0.819770000000     0.582940000000     0.0371629  
H28      H      0.048480000000     0.804420000000     0.445290000000     0.0372416  
H29      H      0.095210000000     0.823310000000     0.578230000000     0.0480578  
H30      H      0.986330000000     0.862660000000     0.498550000000     0.0469962  
H31      H      0.907160000000     0.819080000000     0.439240000000     0.0472881  
H32      H      0.012810000000     0.780410000000     0.528440000000     0.0467762  
H33      H      0.938520000000     0.800590000000     0.479230000000     0.0389213  
H34      H      0.091660000000     0.807600000000     0.439080000000     0.0488226  
H35      H      0.915140000000     0.857660000000     0.551380000000     0.0219779  
H36      H      0.061450000000     0.842040000000     0.543970000000     0.0408973  
H37      H      0.059460000000     0.832950000000     0.462600000000     0.0412888  
H38      H      0.971130000000     0.789190000000     0.526130000000     0.0422296  
H39      H      0.938060000000     0.808640000000     0.557860000000     0.0481678  
H40      H      0.084500000000     0.794170000000     0.565350000000     0.0428779  
H41      H      0.889360000000     0.841200000000     0.599230000000     0.103955   
H42      H      0.893250000000     0.812370000000     0.579750000000     0.100645   
H43      H      0.842500000000     0.042870000000     0.499910000000     0.0430793  
H44      H      0.805620000000     0.962390000000     0.542040000000     0.037203   
H45      H      0.833530000000     0.963030000000     0.412290000000     0.0479546  
H46      H      0.773930000000     0.099830000000     0.493950000000     0.042646   
H47      H      0.831620000000     0.929310000000     0.540900000000     0.0439087  
H48      H      0.820820000000     0.067580000000     0.405840000000     0.037069   
H49      H      0.788580000000     0.065090000000     0.532420000000     0.0371362  
H50      H      0.824720000000     0.111760000000     0.411650000000     0.0477034  
H51      H      0.850190000000     0.000070000000     0.504200000000     0.0468744  
H52      H      0.802610000000     0.917990000000     0.539010000000     0.0476939  
H53      H      0.775320000000     0.028630000000     0.443010000000     0.0466583  
H54      H      0.788860000000     0.951240000000     0.496090000000     0.0389978  
H55      H      0.791810000000     0.109170000000     0.539520000000     0.0488281  
H56      H      0.850920000000     0.928740000000     0.443170000000     0.0219408  
H57      H      0.837260000000     0.076970000000     0.453620000000     0.0405992  
H58      H      0.818130000000     0.075510000000     0.528640000000     0.0411632  
H59      H      0.782830000000     0.985860000000     0.447920000000     0.0422673  
H60      H      0.804460000000     0.952640000000     0.421940000000     0.0482548  
H61      H      0.795170000000     0.101600000000     0.411310000000     0.0422553  
H62      H      0.839690000000     0.903820000000     0.388240000000     0.104122   
H63      H      0.810110000000     0.907250000000     0.398400000000     0.101003   
H64      H      0.025540000000     0.213010000000     0.505930000000     0.0430704  
H65      H      0.947810000000     0.189700000000     0.428870000000     0.0373932  
H66      H      0.950070000000     0.173850000000     0.565830000000     0.0479123  
H67      H      0.084180000000     0.158430000000     0.430290000000     0.0436224  
H68      H      0.914000000000     0.208650000000     0.458390000000     0.0450042  
H69      H      0.051650000000     0.166830000000     0.557580000000     0.0365761  
H70      H      0.049840000000     0.182050000000     0.419990000000     0.0370192  
H71      H      0.094950000000     0.173420000000     0.557950000000     0.0458831  
H72      H      0.983220000000     0.218000000000     0.510250000000     0.0472711  
H73      H      0.904740000000     0.182820000000     0.428720000000     0.0474995  
H74      H      0.016350000000     0.138840000000     0.475530000000     0.046572   
H75      H      0.939070000000     0.160860000000     0.448560000000     0.0385135  
H76      H      0.093100000000     0.188430000000     0.420130000000     0.0478663  
H77      H      0.914910000000     0.195400000000     0.559580000000     0.0227683  
H78      H      0.060520000000     0.195670000000     0.537960000000     0.0395933  
H79      H      0.059520000000     0.204430000000     0.458520000000     0.0400288  
H80      H      0.974130000000     0.143810000000     0.479580000000     0.0419399  
H81      H      0.941340000000     0.151590000000     0.526490000000     0.0478961  
H82      H      0.085560000000     0.147810000000     0.527560000000     0.042228   
H83      H      0.892630000000     0.167590000000     0.593320000000     0.103884   
H84      H      0.897350000000     0.145950000000     0.553050000000     0.0989019  
H85      H      0.782300000000     0.794990000000     0.745830000000     0.0429487  
H86      H      0.705760000000     0.773630000000     0.827740000000     0.037268   
H87      H      0.755630000000     0.718520000000     0.829360000000     0.0484024  
H88      H      0.755810000000     0.805310000000     0.585780000000     0.0428797  
H89      H      0.710290000000     0.761880000000     0.904350000000     0.0420932  
H90      H      0.796000000000     0.756490000000     0.662840000000     0.0366058  
H91      H      0.745520000000     0.811210000000     0.662460000000     0.0369375  
H92      H      0.818760000000     0.778100000000     0.604070000000     0.045999   
H93      H      0.766690000000     0.780220000000     0.816510000000     0.0466838  
H94      H      0.682290000000     0.752870000000     0.884770000000     0.0478899  
H95      H      0.735010000000     0.749610000000     0.674610000000     0.0465964  
H96      H      0.697360000000     0.744080000000     0.811230000000     0.0399486  
H97      H      0.768090000000     0.832970000000     0.603630000000     0.0480234  
H98      H      0.743620000000     0.723190000000     0.905170000000     0.0207918  
H99      H      0.804250000000     0.786250000000     0.678180000000     0.0396941  
H100     H      0.775020000000     0.817950000000     0.677940000000     0.0400976  
H101     H      0.719370000000     0.734900000000     0.745090000000     0.0423426  
H102     H      0.726560000000     0.712290000000     0.810840000000     0.048285   
H103     H      0.791120000000     0.767090000000     0.586060000000     0.0420184  
H104     H      0.736630000000     0.683670000000     0.916530000000     0.105169   
H105     H      0.717100000000     0.681150000000     0.872460000000     0.102862   
H106     H      0.751590000000     0.761230000000     0.165100000000     0.0431421  
H107     H      0.752490000000     0.814100000000     0.306470000000     0.0370632  
H108     H      0.797290000000     0.754750000000     0.313570000000     0.0483913  
H109     H      0.668600000000     0.730860000000     0.161420000000     0.0434048  
H110     H      0.790090000000     0.829510000000     0.326510000000     0.0422753  
H111     H      0.735820000000     0.703610000000     0.186350000000     0.0370032  
H112     H      0.692740000000     0.764560000000     0.179990000000     0.0370958  
H113     H      0.716580000000     0.686900000000     0.118580000000     0.0474361  
H114     H      0.777580000000     0.782750000000     0.215550000000     0.0468827  
H115     H      0.770980000000     0.831740000000     0.373250000000     0.0469548  
H116     H      0.712370000000     0.735510000000     0.277100000000     0.04676    
H117     H      0.751480000000     0.794960000000     0.354370000000     0.0394258  
H118     H      0.673040000000     0.748380000000     0.112410000000     0.0484077  
H119     H      0.821100000000     0.787860000000     0.333820000000     0.0219198  
H120     H      0.737770000000     0.722800000000     0.138600000000     0.0404649  
H121     H      0.712470000000     0.758520000000     0.134830000000     0.0405591  
H122     H      0.738330000000     0.756960000000     0.327520000000     0.0422012  
H123     H      0.776850000000     0.760210000000     0.357630000000     0.0480673  
H124     H      0.697570000000     0.689880000000     0.165520000000     0.0430659  
H125     H      0.835100000000     0.770690000000     0.396890000000     0.105094   
H126     H      0.807740000000     0.766510000000     0.420710000000     0.100471   
H127     H      0.742170000000     0.245050000000     0.685590000000     0.0433862  
H128     H      0.719180000000     0.250630000000     0.855540000000     0.0370949  
H129     H      0.734390000000     0.315490000000     0.791190000000     0.0480836  
H130     H      0.816860000000     0.197770000000     0.683840000000     0.0423425  
H131     H      0.686430000000     0.276060000000     0.870040000000     0.041925   
H132     H      0.796870000000     0.269490000000     0.668780000000     0.0369527  
H133     H      0.778920000000     0.201370000000     0.717960000000     0.0371401  
H134     H      0.814290000000     0.251130000000     0.600850000000     0.0477762  
H135     H      0.715560000000     0.264520000000     0.737900000000     0.0467369  
H136     H      0.702670000000     0.272540000000     0.920210000000     0.0469324  
H137     H      0.798060000000     0.252650000000     0.779440000000     0.0466418  
H138     H      0.739230000000     0.271210000000     0.880610000000     0.039164   
H139     H      0.796050000000     0.182270000000     0.650290000000     0.0487379  
H140     H      0.697700000000     0.322160000000     0.826260000000     0.0210585  
H141     H      0.776550000000     0.251570000000     0.637950000000     0.04102    
H142     H      0.765980000000     0.211460000000     0.666880000000     0.0411474  
H143     H      0.771580000000     0.272330000000     0.831510000000     0.0422233  
H144     H      0.748520000000     0.308240000000     0.842640000000     0.0482754  
H145     H      0.828830000000     0.243130000000     0.651340000000     0.0424775  
H146     H      0.708710000000     0.356790000000     0.859260000000     0.10348    
H147     H      0.731480000000     0.344000000000     0.889020000000     0.100607   
H148     H      0.775640000000     0.237530000000     0.259640000000     0.0433785  
H149     H      0.700840000000     0.270940000000     0.190370000000     0.0373212  
H150     H      0.758470000000     0.316340000000     0.171990000000     0.0478853  
H151     H      0.756920000000     0.238060000000     0.425130000000     0.042792   
H152     H      0.702270000000     0.277280000000     0.111960000000     0.0445269  
H153     H      0.801260000000     0.273910000000     0.334410000000     0.0372908  
H154     H      0.740480000000     0.232520000000     0.352160000000     0.0369994  
H155     H      0.822160000000     0.249170000000     0.390960000000     0.0486081  
H156     H      0.759380000000     0.253150000000     0.190270000000     0.0470831  
H157     H      0.678410000000     0.293980000000     0.133750000000     0.0478375  
H158     H      0.741990000000     0.293650000000     0.332680000000     0.0467518  
H159     H      0.698400000000     0.302190000000     0.202280000000     0.0389814  
H160     H      0.760850000000     0.207640000000     0.409040000000     0.0475317  
H161     H      0.743870000000     0.312510000000     0.098870000000     0.0220245  
H162     H      0.802000000000     0.242700000000     0.321140000000     0.0408601  
H163     H      0.766510000000     0.218540000000     0.331550000000     0.0408101  
H164     H      0.725530000000     0.309110000000     0.263510000000     0.0421784  
H165     H      0.731630000000     0.327810000000     0.193680000000     0.048087   
H166     H      0.798440000000     0.266150000000     0.413010000000     0.0432689  
H167     H      0.741100000000     0.352010000000     0.085790000000     0.102915   
H168     H      0.720600000000     0.357070000000     0.127210000000     0.0992771  
H169     H      0.693180000000     0.546700000000     0.034110000000     0.0431583  
H170     H      0.653080000000     0.463770000000     0.061800000000     0.0370879  
H171     H      0.699150000000     0.466970000000     0.952510000000     0.048183   
H172     H      0.625430000000     0.601350000000     0.001800000000     0.0414498  
H173     H      0.679930000000     0.431130000000     0.070340000000     0.0413139  
H174     H      0.680020000000     0.568060000000     0.929440000000     0.0366632  
H175     H      0.639030000000     0.568610000000     0.046380000000     0.0367699  
H176     H      0.682050000000     0.612560000000     0.930760000000     0.0466751  
H177     H      0.701180000000     0.504210000000     0.044160000000     0.0465907  
H178     H      0.651780000000     0.419770000000     0.056730000000     0.047255   
H179     H      0.634300000000     0.529530000000     0.952100000000     0.046379   
H180     H      0.643590000000     0.453180000000     0.008350000000     0.0396829  
H181     H      0.640850000000     0.613130000000     0.048570000000     0.0474615  
H182     H      0.710910000000     0.432820000000     0.994570000000     0.0206781  
H183     H      0.692080000000     0.579880000000     0.980010000000     0.0406145  
H184     H      0.668190000000     0.580240000000     0.048180000000     0.0405319  
H185     H      0.642420000000     0.487130000000     0.961630000000     0.0422153  
H186     H      0.670190000000     0.455710000000     0.944650000000     0.0481974  
H187     H      0.653440000000     0.600930000000     0.921720000000     0.0417567  
H188     H      0.711920000000     0.407870000000     0.934620000000     0.103509   
H189     H      0.683160000000     0.413350000000     0.919250000000     0.101065   
H190     H      0.223690000000     0.792900000000     0.739180000000     0.043407   
H191     H      0.247410000000     0.718350000000     0.823760000000     0.037198   
H192     H      0.301280000000     0.769370000000     0.822820000000     0.0483683  
H193     H      0.215090000000     0.761660000000     0.580890000000     0.0423335  
H194     H      0.258590000000     0.724140000000     0.900140000000     0.0424535  
H195     H      0.258140000000     0.808750000000     0.653850000000     0.0370023  
H196     H      0.210950000000     0.751020000000     0.658150000000     0.0369892  
H197     H      0.233870000000     0.828540000000     0.595320000000     0.0477161  
H198     H      0.239400000000     0.779030000000     0.810280000000     0.0468796  
H199     H      0.267700000000     0.695300000000     0.882030000000     0.0480001  
H200     H      0.270520000000     0.746260000000     0.669440000000     0.0466094  
H201     H      0.276380000000     0.709610000000     0.807840000000     0.0398712  
H202     H      0.186630000000     0.770140000000     0.599350000000     0.0481592  
H203     H      0.297100000000     0.758460000000     0.899220000000     0.0211208  
H204     H      0.228510000000     0.814020000000     0.670600000000     0.0407801  
H205     H      0.200960000000     0.780320000000     0.672980000000     0.0411331  
H206     H      0.285970000000     0.732120000000     0.740390000000     0.0423194  
H207     H      0.307320000000     0.739370000000     0.805810000000     0.0480781  
H208     H      0.247020000000     0.801180000000     0.577940000000     0.0417209  
H209     H      0.335660000000     0.751130000000     0.910210000000     0.104453   
H210     H      0.337590000000     0.729900000000     0.868100000000     0.101899   
H211     H      0.245830000000     0.765970000000     0.160400000000     0.0430998  
H212     H      0.195030000000     0.763060000000     0.302270000000     0.037576   
H213     H      0.248150000000     0.814850000000     0.307870000000     0.0486023  
H214     H      0.284370000000     0.684740000000     0.158840000000     0.0437592  
H215     H      0.176900000000     0.800260000000     0.322820000000     0.0430778  
H216     H      0.303550000000     0.756770000000     0.180380000000     0.0371497  
H217     H      0.249220000000     0.706030000000     0.177000000000     0.0371547  
H218     H      0.321700000000     0.738170000000     0.113070000000     0.0479471  
H219     H      0.222490000000     0.790670000000     0.210700000000     0.0469088  
H220     H      0.176130000000     0.780130000000     0.368800000000     0.0492092  
H221     H      0.275890000000     0.730150000000     0.272820000000     0.0469699  
H222     H      0.214040000000     0.763880000000     0.349760000000     0.0403281  
H223     H      0.266990000000     0.687060000000     0.109660000000     0.0478158  
H224     H      0.212930000000     0.834990000000     0.328730000000     0.0216041  
H225     H      0.284510000000     0.755760000000     0.132960000000     0.0402378  
H226     H      0.252820000000     0.726150000000     0.130980000000     0.0402481  
H227     H      0.252590000000     0.754770000000     0.323070000000     0.042475   
H228     H      0.245440000000     0.793650000000     0.352270000000     0.0481234  
H229     H      0.321460000000     0.719390000000     0.161150000000     0.0438814  
H230     H      0.228180000000     0.852000000000     0.391400000000     0.104988   
H231     H      0.237720000000     0.825090000000     0.413760000000     0.101338   
H232     H      0.465050000000     0.724540000000     0.959380000000     0.0430172  
H233     H      0.544580000000     0.716450000000     0.032970000000     0.0376305  
H234     H      0.547110000000     0.698680000000     0.896480000000     0.048605   
H235     H      0.417310000000     0.660270000000     0.036830000000     0.0429805  
H236     H      0.576510000000     0.737990000000     0.998410000000     0.0416378  
H237     H      0.444150000000     0.675850000000     0.908400000000     0.0365573  
H238     H      0.448480000000     0.688380000000     0.046820000000     0.0370605  
H239     H      0.400540000000     0.676090000000     0.913130000000     0.045994   
H240     H      0.505980000000     0.736320000000     0.953260000000     0.0466627  
H241     H      0.587330000000     0.716720000000     0.037430000000     0.049461   
H242     H      0.485950000000     0.652530000000     0.986440000000     0.046535   
H243     H      0.556890000000     0.688220000000     0.017130000000     0.0417801  
H244     H      0.405050000000     0.688340000000     0.052470000000     0.0483591  
H245     H      0.578530000000     0.726120000000     0.911950000000     0.0208685  
H246     H      0.432230000000     0.702850000000     0.931110000000     0.0398486  
H247     H      0.434710000000     0.710110000000     0.011710000000     0.0406391  
H248     H      0.526810000000     0.664330000000     0.980970000000     0.0426334  
H249     H      0.557980000000     0.677520000000     0.936180000000     0.0479443  
H250     H      0.414130000000     0.651840000000     0.941600000000     0.0417067  
H251     H      0.607330000000     0.703940000000     0.877090000000     0.104646   
H252     H      0.598010000000     0.677180000000     0.900720000000     0.10174    
H253     H      0.272540000000     0.295800000000     0.737360000000     0.043316   
H254     H      0.252210000000     0.221640000000     0.648860000000     0.0371493  
H255     H      0.193850000000     0.266540000000     0.663550000000     0.0483807  
H256     H      0.291170000000     0.260830000000     0.889810000000     0.0430201  
H257     H      0.237400000000     0.228180000000     0.575110000000     0.0426484  
H258     H      0.240980000000     0.305940000000     0.829130000000     0.0369565  
H259     H      0.292670000000     0.253250000000     0.811100000000     0.037049   
H260     H      0.265990000000     0.326250000000     0.886110000000     0.0473678  
H261     H      0.255000000000     0.282340000000     0.667530000000     0.046861   
H262     H      0.231720000000     0.198150000000     0.591340000000     0.047834   
H263     H      0.233540000000     0.242870000000     0.808840000000     0.0467178  
H264     H      0.225010000000     0.209490000000     0.667950000000     0.0396729  
H265     H      0.317680000000     0.273000000000     0.868310000000     0.0483125  
H266     H      0.195450000000     0.258320000000     0.585740000000     0.0214092  
H267     H      0.269260000000     0.314420000000     0.808890000000     0.0404273  
H268     H      0.299310000000     0.283800000000     0.798540000000     0.0408501  
H269     H      0.216310000000     0.229140000000     0.739110000000     0.0422597  
H270     H      0.191600000000     0.235640000000     0.678000000000     0.0481151  
H271     H      0.255640000000     0.297490000000     0.902290000000     0.0419932  
H272     H      0.157550000000     0.247010000000     0.580150000000     0.104673   
H273     H      0.159920000000     0.224210000000     0.619090000000     0.10166    
H274     H      0.255630000000     0.263960000000     0.316780000000     0.0431125  
H275     H      0.299940000000     0.258120000000     0.168130000000     0.0374855  
H276     H      0.254330000000     0.316910000000     0.173700000000     0.0485112  
H277     H      0.207640000000     0.188090000000     0.315790000000     0.0439905  
H278     H      0.322610000000     0.292610000000     0.148430000000     0.0435312  
H279     H      0.196750000000     0.262720000000     0.306020000000     0.0371429  
H280     H      0.244220000000     0.205550000000     0.294340000000     0.0371852  
H281     H      0.179400000000     0.244000000000     0.374120000000     0.0477333  
H282     H      0.280030000000     0.286820000000     0.265330000000     0.0469717  
H283     H      0.318680000000     0.274260000000     0.100470000000     0.0486661  
H284     H      0.216950000000     0.235890000000     0.206280000000     0.0469739  
H285     H      0.279750000000     0.263080000000     0.123400000000     0.0398679  
H286     H      0.227110000000     0.186450000000     0.362100000000     0.0479903  
H287     H      0.290850000000     0.332990000000     0.149850000000     0.0219742  
H288     H      0.217450000000     0.257480000000     0.349760000000     0.040053   
H289     H      0.245060000000     0.224170000000     0.342990000000     0.0402706  
H290     H      0.241300000000     0.258660000000     0.154870000000     0.0423763  
H291     H      0.252790000000     0.296730000000     0.127480000000     0.0481076  
H292     H      0.175020000000     0.227380000000     0.324020000000     0.0441184  
H293     H      0.275750000000     0.353140000000     0.090760000000     0.104936   
H294     H      0.263450000000     0.327970000000     0.066410000000     0.101213   
H295     H      0.474060000000     0.351290000000     0.983730000000     0.0432714  
H296     H      0.551230000000     0.320690000000     0.049050000000     0.0373296  
H297     H      0.553890000000     0.329830000000     0.910000000000     0.0476983  
H298     H      0.418350000000     0.283350000000     0.015330000000     0.0430746  
H299     H      0.583720000000     0.346270000000     0.038720000000     0.0448358  
H300     H      0.450890000000     0.314820000000     0.904740000000     0.0372115  
H301     H      0.451850000000     0.304330000000     0.044080000000     0.0372492  
H302     H      0.407610000000     0.319210000000     0.906390000000     0.0481921  
H303     H      0.515890000000     0.359540000000     0.986120000000     0.0469928  
H304     H      0.594800000000     0.317360000000     0.050960000000     0.0474364  
H305     H      0.488380000000     0.276760000000     0.966390000000     0.0468323  
H306     H      0.563160000000     0.297820000000     0.014010000000     0.0386323  
H307     H      0.408630000000     0.308400000000     0.047220000000     0.0485468  
H308     H      0.586810000000     0.351550000000     0.932860000000     0.0223087  
H309     H      0.441090000000     0.338530000000     0.940390000000     0.0408341  
H310     H      0.441630000000     0.332320000000     0.022620000000     0.0411879  
H311     H      0.530180000000     0.284960000000     0.969040000000     0.0421525  
H312     H      0.563590000000     0.302630000000     0.934950000000     0.048107   
H313     H      0.417620000000     0.290390000000     0.923170000000     0.043063   
H314     H      0.612510000000     0.332320000000     0.888870000000     0.102801   
H315     H      0.609010000000     0.305010000000     0.914860000000     0.0987863  
H316     H      0.296640000000     0.474480000000     0.993860000000     0.0432479  
H317     H      0.323390000000     0.556160000000     0.053490000000     0.0374245  
H318     H      0.306660000000     0.557110000000     0.916820000000     0.0487223  
H319     H      0.368660000000     0.422960000000     0.011220000000     0.0422307  
H320     H      0.296580000000     0.588730000000     0.041240000000     0.0425474  
H321     H      0.328910000000     0.453410000000     0.907570000000     0.0370995  
H322     H      0.346920000000     0.455280000000     0.043880000000     0.0369497  
H323     H      0.328260000000     0.408870000000     0.909430000000     0.0481167  
H324     H      0.285830000000     0.516580000000     0.998310000000     0.0469241  
H325     H      0.324670000000     0.600020000000     0.055580000000     0.0485953  
H326     H      0.366910000000     0.494300000000     0.961320000000     0.0465662  
H327     H      0.344090000000     0.568290000000     0.014640000000     0.0404245  
H328     H      0.346630000000     0.410840000000     0.046780000000     0.0478245  
H329     H      0.286230000000     0.589910000000     0.950490000000     0.0214556  
H330     H      0.308950000000     0.441400000000     0.947900000000     0.0407962  
H331     H      0.319530000000     0.442450000000     0.027680000000     0.0407871  
H332     H      0.356170000000     0.536340000000     0.965970000000     0.0423462  
H333     H      0.334470000000     0.568280000000     0.934410000000     0.0480353  
H334     H      0.356380000000     0.421570000000     0.919090000000     0.0425587  
H335     H      0.298000000000     0.617560000000     0.898850000000     0.105615   
H336     H      0.327460000000     0.610340000000     0.903590000000     0.102041   
N1       N      0.185980000000     0.106210000000     0.491610000000    -0.167031   
N2       N      0.187610000000     0.055730000000     0.492980000000    -0.110668   
N3       N      0.161060000000     0.958310000000     0.502050000000    -0.113513   
N4       N      0.160160000000     0.908310000000     0.500370000000    -0.154237   
N5       N      0.188400000000     0.106060000000     0.573730000000    -0.19871    
N6       N      0.902190000000     0.832470000000     0.505450000000    -0.167015   
N7       N      0.951280000000     0.832510000000     0.509070000000    -0.110164   
N8       N      0.047810000000     0.810250000000     0.515060000000    -0.113552   
N9       N      0.096570000000     0.813030000000     0.509330000000    -0.153746   
N10      N      0.901080000000     0.828710000000     0.586670000000    -0.198411   
N11      N      0.822410000000     0.914560000000     0.478830000000    -0.166704   
N12      N      0.822480000000     0.964770000000     0.479410000000    -0.110073   
N13      N      0.803100000000     0.063890000000     0.467490000000    -0.113611   
N14      N      0.806390000000     0.113690000000     0.474050000000    -0.15398    
N15      N      0.826410000000     0.915430000000     0.397630000000    -0.198435   
N16      N      0.901780000000     0.181010000000     0.499730000000    -0.167069   
N17      N      0.950750000000     0.185030000000     0.498610000000    -0.109982   
N18      N      0.048770000000     0.171640000000     0.487790000000    -0.11335    
N19      N      0.097470000000     0.175820000000     0.486930000000    -0.15433    
N20      N      0.904450000000     0.160060000000     0.571070000000    -0.1983     
N21      N      0.707200000000     0.724760000000     0.895540000000    -0.167231   
N22      N      0.733170000000     0.748370000000     0.828460000000    -0.110524   
N23      N      0.768320000000     0.781500000000     0.662630000000    -0.113414   
N24      N      0.792260000000     0.804370000000     0.593240000000    -0.154303   
N25      N      0.732010000000     0.689430000000     0.884780000000    -0.198719   
N26      N      0.798020000000     0.805310000000     0.377920000000    -0.167367   
N27      N      0.775490000000     0.784630000000     0.303600000000    -0.110414   
N28      N      0.714090000000     0.734130000000     0.189140000000    -0.113522   
N29      N      0.691160000000     0.714910000000     0.114850000000    -0.154135   
N30      N      0.817540000000     0.766990000000     0.391480000000    -0.198435   
N31      N      0.704680000000     0.306980000000     0.889180000000    -0.16741    
N32      N      0.725420000000     0.281830000000     0.817740000000    -0.110432   
N33      N      0.788480000000     0.236390000000     0.698860000000    -0.113581   
N34      N      0.809030000000     0.215250000000     0.623720000000    -0.153796   
N35      N      0.721780000000     0.343920000000     0.859710000000    -0.198509   
N36      N      0.707730000000     0.314400000000     0.111490000000    -0.166987   
N37      N      0.731860000000     0.290640000000     0.180090000000    -0.110075   
N38      N      0.769060000000     0.255930000000     0.342960000000    -0.113409   
N39      N      0.791630000000     0.229360000000     0.409330000000    -0.153973   
N40      N      0.735340000000     0.347510000000     0.117590000000    -0.198285   
N41      N      0.677810000000     0.417320000000     0.005220000000    -0.167464   
N42      N      0.677940000000     0.467720000000     0.010120000000    -0.11055    
N43      N      0.657650000000     0.565960000000     0.985560000000    -0.113553   
N44      N      0.658080000000     0.615970000000     0.985290000000    -0.154482   
N45      N      0.698350000000     0.420170000000     0.933320000000    -0.198609   
N46      N      0.294950000000     0.721090000000     0.891990000000    -0.167081   
N47      N      0.272060000000     0.746440000000     0.823310000000    -0.110488   
N48      N      0.237000000000     0.777790000000     0.656470000000    -0.113521   
N49      N      0.210800000000     0.798700000000     0.588000000000    -0.154254   
N50      N      0.329830000000     0.745640000000     0.879020000000    -0.198591   
N51      N      0.199840000000     0.809780000000     0.374600000000    -0.166757   
N52      N      0.221510000000     0.789290000000     0.298880000000    -0.110528   
N53      N      0.276500000000     0.731140000000     0.184810000000    -0.113372   
N54      N      0.297730000000     0.708820000000     0.111580000000    -0.153886   
N55      N      0.234570000000     0.834970000000     0.385020000000    -0.198559   
N56      N      0.592590000000     0.708410000000     0.967830000000    -0.167064   
N57      N      0.543270000000     0.709080000000     0.963810000000    -0.110768   
N58      N      0.448740000000     0.679910000000     0.978030000000    -0.113479   
N59      N      0.400000000000     0.677760000000     0.984490000000    -0.154405   
N60      N      0.593420000000     0.694170000000     0.889870000000    -0.198813   
N61      N      0.201910000000     0.221310000000     0.587970000000    -0.167025   
N62      N      0.225060000000     0.246940000000     0.656000000000    -0.110403   
N63      N      0.264500000000     0.277210000000     0.820040000000    -0.11342    
N64      N      0.291460000000     0.298290000000     0.887280000000    -0.153983   
N65      N      0.165390000000     0.241150000000     0.609420000000    -0.198475   
N66      N      0.299660000000     0.307340000000     0.101160000000    -0.16688    
N67      N      0.277620000000     0.287790000000     0.177240000000    -0.110408   
N68      N      0.220010000000     0.234070000000     0.294030000000    -0.113333   
N69      N      0.199250000000     0.211790000000     0.367700000000    -0.153734   
N70      N      0.267890000000     0.336640000000     0.095890000000    -0.198514   
N71      N      0.599530000000     0.329260000000     0.983890000000    -0.166971   
N72      N      0.550570000000     0.328600000000     0.980090000000    -0.10995    
N73      N      0.453730000000     0.307610000000     0.973830000000    -0.113508   
N74      N      0.404930000000     0.311230000000     0.976190000000    -0.15373    
N75      N      0.600920000000     0.320600000000     0.904140000000    -0.198269   
N76      N      0.314140000000     0.604610000000     0.987170000000    -0.166993   
N77      N      0.313060000000     0.554120000000     0.985910000000    -0.110621   
N78      N      0.339870000000     0.456820000000     0.974660000000    -0.113529   
N79      N      0.341020000000     0.406830000000     0.976480000000    -0.15417    
N80      N      0.310290000000     0.604350000000     0.905300000000    -0.198683   
O1       O      0.326210000000     0.303280000000     0.044290000000    -0.25229    
O2       O      0.299100000000     0.328270000000     0.937150000000    -0.253857   
O3       O      0.371310000000     0.318530000000     0.015240000000    -0.249944   
O4       O      0.341870000000     0.371500000000     0.014700000000    -0.254339   
O5       O      0.332740000000     0.370390000000     0.945680000000    -0.252676   
O6       O      0.370690000000     0.323830000000     0.944670000000    -0.251407   
O7       O      0.306250000000     0.335300000000     0.046290000000    -0.257801   
O8       O      0.324920000000     0.301160000000     0.928550000000    -0.252389   
O9       O      0.297370000000     0.682110000000     0.053750000000    -0.253289   
O10      O      0.323880000000     0.713810000000     0.943500000000    -0.260151   
O11      O      0.324680000000     0.638780000000     0.024270000000    -0.25437    
O12      O      0.365930000000     0.681990000000     0.023640000000    -0.251179   
O13      O      0.363550000000     0.676130000000     0.953390000000    -0.257485   
O14      O      0.314630000000     0.642270000000     0.956330000000    -0.256287   
O15      O      0.324890000000     0.707800000000     0.055540000000    -0.251329   
O16      O      0.296150000000     0.688700000000     0.938680000000    -0.253667   
O17      O      0.635790000000     0.338410000000     0.955760000000    -0.262991   
O18      O      0.662430000000     0.381530000000     0.028220000000    -0.258591   
O19      O      0.690850000000     0.340300000000     0.925320000000    -0.256406   
O20      O      0.676440000000     0.316070000000     0.063970000000    -0.250875   
O21      O      0.705100000000     0.339190000000     0.050560000000    -0.263181   
O22      O      0.686680000000     0.306760000000     0.957690000000    -0.258249   
O23      O      0.632920000000     0.332140000000     0.025620000000    -0.250521   
O24      O      0.688160000000     0.380620000000     0.977050000000    -0.257277   
O25      O      0.698900000000     0.694770000000     0.945610000000    -0.257565   
O26      O      0.667640000000     0.719270000000     0.053790000000    -0.251477   
O27      O      0.671110000000     0.651860000000     0.958530000000    -0.253909   
O28      O      0.624570000000     0.704470000000     0.013190000000    -0.250627   
O29      O      0.629080000000     0.696270000000     0.944430000000    -0.260082   
O30      O      0.651250000000     0.652000000000     0.018890000000    -0.255314   
O31      O      0.674040000000     0.722670000000     0.938370000000    -0.255448   
O32      O      0.688920000000     0.688070000000     0.057390000000    -0.255127   
O33      O      0.808030000000     0.147120000000     0.517810000000    -0.247919   
O34      O      0.866550000000     0.186110000000     0.464620000000    -0.251536   
O35      O      0.813040000000     0.183390000000     0.576480000000    -0.246382   
O36      O      0.793530000000     0.197480000000     0.456940000000    -0.256296   
O37      O      0.824530000000     0.218000000000     0.447060000000    -0.249618   
O38      O      0.822590000000     0.217870000000     0.552010000000    -0.254162   
O39      O      0.825150000000     0.148240000000     0.454520000000    -0.254958   
O40      O      0.866050000000     0.179500000000     0.534500000000    -0.262661   
O41      O      0.865460000000     0.840780000000     0.532450000000    -0.260083   
O42      O      0.833230000000     0.877800000000     0.451700000000    -0.259746   
O43      O      0.823010000000     0.807690000000     0.544810000000    -0.257017   
O44      O      0.825780000000     0.807980000000     0.433080000000    -0.257553   
O45      O      0.800370000000     0.835570000000     0.429310000000    -0.257862   
O46      O      0.797360000000     0.835340000000     0.544390000000    -0.250851   
O47      O      0.868640000000     0.831090000000     0.463940000000    -0.253336   
O48      O      0.818250000000     0.879240000000     0.516770000000    -0.251149   
O49      O      0.129360000000     0.819210000000     0.467180000000    -0.248835   
O50      O      0.168030000000     0.872010000000     0.531990000000    -0.251894   
O51      O      0.172140000000     0.806860000000     0.429680000000    -0.250621   
O52      O      0.178030000000     0.800730000000     0.544640000000    -0.254197   
O53      O      0.201550000000     0.830270000000     0.542870000000    -0.253319   
O54      O      0.196110000000     0.835780000000     0.433750000000    -0.258546   
O55      O      0.131420000000     0.826400000000     0.537070000000    -0.252255   
O56      O      0.159840000000     0.872820000000     0.462530000000    -0.25494    
O57      O      0.198300000000     0.182680000000     0.421220000000    -0.251765   
O58      O      0.171970000000     0.212910000000     0.539190000000    -0.259071   
O59      O      0.175100000000     0.140000000000     0.453790000000    -0.253234   
O60      O      0.132190000000     0.182540000000     0.451230000000    -0.252631   
O61      O      0.133190000000     0.175190000000     0.521080000000    -0.25719    
O62      O      0.183280000000     0.143760000000     0.522600000000    -0.257199   
O63      O      0.174000000000     0.211440000000     0.426990000000    -0.251987   
O64      O      0.202190000000     0.190860000000     0.536790000000    -0.254592   


