data_structure

_audit_creation_method RASPA-1.0
_audit_creation_date 2023-6-5
_audit_author_name 'Poobodin Mano'

_cell_length_a    58.2227
_cell_length_b    56.878
_cell_length_c    28.9738
_cell_angle_alpha 90.0226
_cell_angle_beta  89.9164
_cell_angle_gamma 90.0001
_cell_volume      95949.3

_symmetry_cell_setting          triclinic
_symmetry_space_group_name_Hall 'P 1'
_symmetry_space_group_name_H-M  'P 1'
_symmetry_Int_Tables_number     1

_symmetry_equiv_pos_as_xyz 'x,y,z'

loop_
_atom_site_label
_atom_site_type_symbol
_atom_site_fract_x
_atom_site_fract_y
_atom_site_fract_z
_atom_site_charge
C1       C      0.300000000000     0.311480000000     0.098250000000     0.338249   
C2       C      0.373000000000     0.327090000000     0.009830000000     0.338376   
C3       C      0.307910000000     0.308350000000     0.939580000000     0.338757   
C4       C      0.314660000000     0.381730000000     0.036760000000     0.33886    
C5       C      0.322040000000     0.626230000000     0.025650000000     0.362843   
C6       C      0.301890000000     0.697990000000     0.087380000000     0.362282   
C7       C      0.377510000000     0.680860000000     0.007710000000     0.361598   
C8       C      0.312230000000     0.700250000000     0.932010000000     0.366549   
C9       C      0.612340000000     0.335300000000     0.024390000000     0.361226   
C10      C      0.685480000000     0.307860000000     0.962950000000     0.344626   
C11      C      0.673330000000     0.384530000000     0.031060000000     0.364564   
C12      C      0.676730000000     0.313520000000     0.117830000000     0.362284   
C13      C      0.658920000000     0.626770000000     0.982580000000     0.343602   
C14      C      0.688010000000     0.692950000000     0.900230000000     0.33868    
C15      C      0.614640000000     0.693790000000     0.975730000000     0.339813   
C16      C      0.685160000000     0.698800000000     0.056380000000     0.363358   
C17      C      0.803170000000     0.204220000000     0.594780000000     0.362487   
C18      C      0.825650000000     0.130000000000     0.523310000000     0.340487   
C19      C      0.811980000000     0.200180000000     0.438150000000     0.34135    
C20      C      0.878210000000     0.186510000000     0.531880000000     0.338811   
C21      C      0.801610000000     0.817450000000     0.555090000000     0.364687   
C22      C      0.872930000000     0.842550000000     0.487250000000     0.363273   
C23      C      0.809550000000     0.815150000000     0.396440000000     0.343148   
C24      C      0.808430000000     0.889130000000     0.473670000000     0.36519    
C25      C      0.184450000000     0.798850000000     0.458120000000     0.338271   
C26      C      0.110560000000     0.824820000000     0.531700000000     0.338174   
C27      C      0.173670000000     0.809160000000     0.613550000000     0.340409   
C28      C      0.170370000000     0.875020000000     0.496980000000     0.339494   
C29      C      0.186710000000     0.181570000000     0.433560000000     0.360836   
C30      C      0.162250000000     0.118220000000     0.514160000000     0.358329   
C31      C      0.186220000000     0.192780000000     0.593070000000     0.360387   
C32      C      0.116610000000     0.184850000000     0.534490000000     0.36276    
C33      C      0.181940000000     0.056380000000     0.527960000000    -0.0332302  
C34      C      0.156180000000     0.934440000000     0.461520000000    -0.028754   
C35      C      0.194800000000     0.910420000000     0.504650000000    -0.0106669  
C36      C      0.162500000000     0.909380000000     0.446930000000    -0.0106382  
C37      C      0.183870000000     0.988480000000     0.459640000000    -0.050068   
C38      C      0.153320000000     0.003020000000     0.528540000000    -0.0503166  
C39      C      0.172310000000     0.971600000000     0.486090000000     0.0642914  
C40      C      0.187460000000     0.935400000000     0.517560000000    -0.028635   
C41      C      0.164970000000     0.019900000000     0.502260000000     0.0645314  
C42      C      0.150830000000     0.056980000000     0.472680000000    -0.118203   
C43      C      0.180280000000     0.012450000000     0.467510000000    -0.052793   
C44      C      0.143280000000     0.081680000000     0.487390000000     0.322352   
C45      C      0.175880000000     0.080810000000     0.546170000000    -0.00604757 
C46      C      0.156900000000     0.979060000000     0.520640000000    -0.0533253  
C47      C      0.933950000000     0.825030000000     0.472750000000    -0.0342653  
C48      C      0.051310000000     0.843440000000     0.558310000000    -0.0285435  
C49      C      0.074370000000     0.806200000000     0.506830000000    -0.0109496  
C50      C      0.075000000000     0.834870000000     0.573840000000    -0.0107953  
C51      C      0.008880000000     0.848510000000     0.497050000000    -0.0536823  
C52      C      0.974710000000     0.821150000000     0.538640000000    -0.0529725  
C53      C      0.015100000000     0.830000000000     0.526780000000     0.0641796  
C54      C      0.050780000000     0.815990000000     0.493960000000    -0.0282949  
C55      C      0.968470000000     0.839600000000     0.508740000000     0.0640088  
C56      C      0.931240000000     0.851210000000     0.538470000000    -0.118403   
C57      C      0.985730000000     0.853220000000     0.488230000000    -0.0507152  
C58      C      0.907450000000     0.860010000000     0.523850000000     0.322567   
C59      C      0.910590000000     0.832790000000     0.454280000000    -0.00449955 
C60      C      0.997840000000     0.816470000000     0.547510000000    -0.0503996  
C61      C      0.816130000000     0.951150000000     0.449840000000    -0.0352038  
C62      C      0.803840000000     0.069860000000     0.547120000000    -0.0281628  
C63      C      0.839180000000     0.092470000000     0.491050000000    -0.0104339  
C64      C      0.813800000000     0.093500000000     0.562610000000    -0.010968   
C65      C      0.795080000000     0.027120000000     0.485380000000    -0.0530087  
C66      C      0.823050000000     0.991040000000     0.519130000000    -0.0526308  
C67      C      0.814510000000     0.032660000000     0.512160000000     0.0648885  
C68      C      0.827930000000     0.069050000000     0.478700000000    -0.0282862  
C69      C      0.803740000000     0.985470000000     0.492010000000     0.0651804  
C70      C      0.793410000000     0.946780000000     0.520190000000    -0.120232   
C71      C      0.789790000000     0.003670000000     0.475510000000    -0.0500176  
C72      C      0.785050000000     0.922440000000     0.504990000000     0.325385   
C73      C      0.808310000000     0.927100000000     0.432360000000    -0.00434642 
C74      C      0.828310000000     0.014450000000     0.529060000000    -0.0493163  
C75      C      0.057570000000     0.179700000000     0.575930000000    -0.0347715  
C76      C      0.938760000000     0.205100000000     0.507130000000    -0.0282182  
C77      C      0.913770000000     0.174030000000     0.569880000000    -0.0106804  
C78      C      0.914380000000     0.197570000000     0.494340000000    -0.0105992  
C79      C      0.983420000000     0.209180000000     0.562810000000    -0.0530319  
C80      C      0.012960000000     0.176520000000     0.521580000000    -0.052637   
C81      C      0.974260000000     0.189910000000     0.538470000000     0.0645756  
C82      C      0.938220000000     0.182880000000     0.578170000000    -0.0280128  
C83      C      0.022170000000     0.195720000000     0.546090000000     0.0652115  
C84      C      0.057820000000     0.203370000000     0.505880000000    -0.119626   
C85      C      0.007200000000     0.211980000000     0.566550000000    -0.0503486  
C86      C      0.083100000000     0.209930000000     0.512890000000     0.324567   
C87      C      0.082710000000     0.185600000000     0.585640000000    -0.00456682 
C88      C      0.989210000000     0.173710000000     0.517940000000    -0.0489384  
C89      C      0.794320000000     0.778560000000     0.657280000000    -0.0335315  
C90      C      0.701490000000     0.726840000000     0.795590000000    -0.0285894  
C91      C      0.725360000000     0.696080000000     0.860170000000    -0.0109999  
C92      C      0.688320000000     0.707140000000     0.819810000000    -0.010723   
C93      C      0.741190000000     0.759940000000     0.772840000000    -0.0528872  
C94      C      0.757120000000     0.743860000000     0.687330000000    -0.05294    
C95      C      0.737920000000     0.736250000000     0.760290000000     0.0645797  
C96      C      0.737090000000     0.716220000000     0.834180000000    -0.0282878  
C97      C      0.760090000000     0.767630000000     0.699590000000     0.0650916  
C98      C      0.756720000000     0.787560000000     0.626320000000    -0.118523   
C99      C      0.752190000000     0.775440000000     0.742620000000    -0.0500312  
C100     C      0.765940000000     0.808300000000     0.598240000000     0.322954   
C101     C      0.805450000000     0.799020000000     0.631340000000    -0.0052859  
C102     C      0.746110000000     0.728370000000     0.717540000000    -0.0499263  
C103     C      0.714010000000     0.744910000000     0.126090000000    -0.034281   
C104     C      0.787150000000     0.765790000000     0.328390000000    -0.0291331  
C105     C      0.795710000000     0.815910000000     0.315930000000    -0.00967167 
C106     C      0.807090000000     0.777580000000     0.353830000000    -0.00931388 
C107     C      0.743610000000     0.761880000000     0.270110000000    -0.0534847  
C108     C      0.758080000000     0.746180000000     0.183290000000    -0.052666   
C109     C      0.766460000000     0.765690000000     0.255940000000     0.0649133  
C110     C      0.776160000000     0.802710000000     0.292080000000    -0.028825   
C111     C      0.735210000000     0.742420000000     0.197410000000     0.0640764  
C112     C      0.725060000000     0.706840000000     0.156180000000    -0.118676   
C113     C      0.728180000000     0.750310000000     0.241000000000    -0.0495181  
C114     C      0.705200000000     0.694460000000     0.131440000000     0.322753   
C115     C      0.693380000000     0.734620000000     0.100630000000    -0.00448594 
C116     C      0.773520000000     0.757700000000     0.212450000000    -0.050533   
C117     C      0.790480000000     0.235690000000     0.704590000000    -0.0344135  
C118     C      0.695800000000     0.275050000000     0.854280000000    -0.0279148  
C119     C      0.722040000000     0.292180000000     0.933130000000    -0.00964185 
C120     C      0.683800000000     0.278240000000     0.900900000000    -0.0103585  
C121     C      0.733680000000     0.277440000000     0.781380000000    -0.0533021  
C122     C      0.752210000000     0.232110000000     0.776740000000    -0.0521724  
C123     C      0.731480000000     0.262170000000     0.819400000000     0.0655234  
C124     C      0.732270000000     0.288480000000     0.885040000000    -0.0283004  
C125     C      0.754340000000     0.247340000000     0.738640000000     0.0641543  
C126     C      0.754850000000     0.220230000000     0.674230000000    -0.118679   
C127     C      0.744990000000     0.269990000000     0.741380000000    -0.0491888  
C128     C      0.765340000000     0.216090000000     0.626400000000     0.322577   
C129     C      0.802760000000     0.232790000000     0.658280000000    -0.00438813 
C130     C      0.740840000000     0.239530000000     0.816670000000    -0.0500598  
C131     C      0.716640000000     0.303330000000     0.212130000000    -0.0345361  
C132     C      0.770580000000     0.208560000000     0.345490000000    -0.0290666  
C133     C      0.810040000000     0.233470000000     0.383420000000    -0.0100285  
C134     C      0.790980000000     0.194770000000     0.364770000000    -0.009718   
C135     C      0.740290000000     0.251230000000     0.325280000000    -0.0533119  
C136     C      0.746470000000     0.260230000000     0.231180000000    -0.0527057  
C137     C      0.760500000000     0.243650000000     0.303010000000     0.0648292  
C138     C      0.789000000000     0.245970000000     0.363560000000    -0.0288083  
C139     C      0.726260000000     0.267830000000     0.253440000000     0.0644983  
C140     C      0.698100000000     0.266270000000     0.192130000000    -0.119609   
C141     C      0.723350000000     0.263200000000     0.300550000000    -0.0498338  
C142     C      0.677410000000     0.279160000000     0.171570000000     0.323839   
C143     C      0.696500000000     0.317420000000     0.192720000000    -0.00538672 
C144     C      0.763390000000     0.248240000000     0.255890000000    -0.0503223  
C145     C      0.664990000000     0.446730000000     0.057730000000    -0.0349114  
C146     C      0.674040000000     0.564950000000     0.958020000000    -0.0286997  
C147     C      0.643930000000     0.591030000000     0.020250000000    -0.00969377 
C148     C      0.664520000000     0.588810000000     0.943050000000    -0.00980295 
C149     C      0.684580000000     0.523150000000     0.020430000000    -0.0532187  
C150     C      0.653990000000     0.487850000000     0.993300000000    -0.0525681  
C151     C      0.663850000000     0.529250000000     0.998500000000     0.06495    
C152     C      0.654350000000     0.567070000000     0.031920000000    -0.0287029  
C153     C      0.674790000000     0.481720000000     0.014970000000     0.064708   
C154     C      0.682780000000     0.443450000000     0.981890000000    -0.119834   
C155     C      0.689960000000     0.499560000000     0.028470000000    -0.0497568  
C156     C      0.692150000000     0.418920000000     0.993050000000     0.32484    
C157     C      0.673990000000     0.422560000000     0.071890000000    -0.00443298 
C158     C      0.648660000000     0.511430000000     0.985130000000    -0.0497513  
C159     C      0.286290000000     0.748640000000     0.868100000000    -0.0346056  
C160     C      0.199330000000     0.765630000000     0.688090000000    -0.0288075  
C161     C      0.189460000000     0.815840000000     0.691840000000    -0.0107132  
C162     C      0.177280000000     0.775340000000     0.666760000000    -0.0104038  
C163     C      0.247210000000     0.767180000000     0.731850000000    -0.0529826  
C164     C      0.239330000000     0.751500000000     0.821980000000    -0.0530417  
C165     C      0.225400000000     0.770240000000     0.752110000000     0.0643337  
C166     C      0.211130000000     0.804920000000     0.712720000000    -0.028699   
C167     C      0.261120000000     0.748360000000     0.801670000000     0.065078   
C168     C      0.274140000000     0.711540000000     0.833840000000    -0.119997   
C169     C      0.264880000000     0.756360000000     0.756580000000    -0.0504477  
C170     C      0.295250000000     0.698800000000     0.852940000000     0.325271   
C171     C      0.307850000000     0.737210000000     0.888220000000    -0.00481739 
C172     C      0.221690000000     0.762390000000     0.797310000000    -0.0496793  
C173     C      0.289160000000     0.729180000000     0.197530000000    -0.0344319  
C174     C      0.195060000000     0.764400000000     0.352100000000    -0.0282594  
C175     C      0.221410000000     0.783770000000     0.428760000000    -0.0109041  
C176     C      0.183580000000     0.767510000000     0.399250000000    -0.0111313  
C177     C      0.231600000000     0.768210000000     0.276930000000    -0.0534827  
C178     C      0.252330000000     0.723890000000     0.272390000000    -0.0527591  
C179     C      0.230830000000     0.753190000000     0.315540000000     0.064348   
C180     C      0.231250000000     0.780050000000     0.380340000000    -0.0283754  
C181     C      0.252990000000     0.738850000000     0.233680000000     0.06437    
C182     C      0.254100000000     0.711080000000     0.170320000000    -0.119063   
C183     C      0.242570000000     0.761010000000     0.236380000000    -0.0505942  
C184     C      0.263990000000     0.707140000000     0.121900000000     0.323578   
C185     C      0.300790000000     0.726710000000     0.150490000000    -0.00382837 
C186     C      0.241280000000     0.731060000000     0.312870000000    -0.0497673  
C187     C      0.437580000000     0.698670000000     0.036460000000    -0.0335761  
C188     C      0.554590000000     0.690530000000     0.942770000000    -0.0287511  
C189     C      0.581950000000     0.714190000000     0.013010000000    -0.0106778  
C190     C      0.578780000000     0.699280000000     0.931330000000    -0.0106055  
C191     C      0.513330000000     0.677760000000     0.003220000000    -0.0531284  
C192     C      0.480340000000     0.711640000000     0.980960000000    -0.052834   
C193     C      0.520340000000     0.699820000000     0.986180000000     0.064484   
C194     C      0.557620000000     0.705010000000     0.021870000000    -0.0286617  
C195     C      0.473330000000     0.689540000000     0.997810000000     0.0646634  
C196     C      0.437200000000     0.683090000000     0.958850000000    -0.11821    
C197     C      0.490010000000     0.672750000000     0.008950000000    -0.0502174  
C198     C      0.413320000000     0.672270000000     0.965040000000     0.322382   
C199     C      0.413900000000     0.688490000000     0.047440000000    -0.00493255 
C200     C      0.503670000000     0.716660000000     0.975270000000    -0.0501757  
C201     C      0.216080000000     0.240230000000     0.658030000000    -0.0339443  
C202     C      0.282930000000     0.260920000000     0.869110000000    -0.0285809  
C203     C      0.294930000000     0.310410000000     0.858620000000    -0.0108701  
C204     C      0.302900000000     0.271170000000     0.896830000000    -0.0106178  
C205     C      0.241020000000     0.260240000000     0.805430000000    -0.0533958  
C206     C      0.257520000000     0.241800000000     0.722220000000    -0.053044   
C207     C      0.264510000000     0.262260000000     0.794450000000     0.0642658  
C208     C      0.275290000000     0.298560000000     0.832420000000    -0.0284235  
C209     C      0.234020000000     0.239790000000     0.733190000000     0.0642712  
C210     C      0.223240000000     0.203210000000     0.696580000000    -0.118507   
C211     C      0.225960000000     0.249090000000     0.774940000000    -0.050475   
C212     C      0.203620000000     0.190930000000     0.670950000000     0.322459   
C213     C      0.195900000000     0.230080000000     0.630890000000    -0.00503353 
C214     C      0.272560000000     0.252970000000     0.752690000000    -0.0502668  
C215     C      0.233440000000     0.206290000000     0.364830000000    -0.0343163  
C216     C      0.253680000000     0.281440000000     0.162420000000    -0.028582   
C217     C      0.301490000000     0.294860000000     0.176810000000    -0.0108921  
C218     C      0.263340000000     0.303050000000     0.137690000000    -0.0106716  
C219     C      0.253380000000     0.236730000000     0.221300000000    -0.0530159  
C220     C      0.234280000000     0.250690000000     0.305610000000    -0.0527153  
C221     C      0.254670000000     0.260460000000     0.234990000000     0.0644305  
C222     C      0.290210000000     0.273590000000     0.199860000000    -0.0283595  
C223     C      0.232970000000     0.226950000000     0.291940000000     0.0650148  
C224     C      0.197150000000     0.214110000000     0.326010000000    -0.119167   
C225     C      0.242610000000     0.220170000000     0.249650000000    -0.0503244  
C226     C      0.185490000000     0.193470000000     0.350630000000     0.323948   
C227     C      0.223130000000     0.185300000000     0.390500000000    -0.00554194 
C228     C      0.245050000000     0.267230000000     0.277280000000    -0.0496841  
C229     C      0.551120000000     0.319790000000     0.047070000000    -0.0338031  
C230     C      0.432270000000     0.341520000000     0.974330000000    -0.028421   
C231     C      0.408890000000     0.307250000000     0.032700000000    -0.0108784  
C232     C      0.407700000000     0.334030000000     0.962760000000    -0.0108664  
C233     C      0.476810000000     0.345980000000     0.028580000000    -0.0534479  
C234     C      0.508000000000     0.315050000000     0.987100000000    -0.0526802  
C235     C      0.468620000000     0.326770000000     0.002690000000     0.0643295  
C236     C      0.433360000000     0.315940000000     0.041480000000    -0.0283924  
C237     C      0.516190000000     0.334340000000     0.012750000000     0.0643773  
C238     C      0.552890000000     0.341920000000     0.975930000000    -0.11858    
C239     C      0.500420000000     0.349690000000     0.033360000000    -0.0504056  
C240     C      0.577450000000     0.350270000000     0.985510000000     0.322502   
C241     C      0.575260000000     0.327330000000     0.061280000000    -0.00472289 
C242     C      0.484390000000     0.311410000000     0.982090000000    -0.0499532  
C243     C      0.300670000000     0.564690000000     0.007390000000    -0.0328348  
C244     C      0.326050000000     0.442560000000     0.072380000000    -0.0285759  
C245     C      0.291930000000     0.417160000000     0.018230000000    -0.0108257  
C246     C      0.319980000000     0.417180000000     0.084850000000    -0.0107605  
C247     C      0.327250000000     0.487890000000     0.016200000000    -0.0528063  
C248     C      0.298710000000     0.519210000000     0.063800000000    -0.0528613  
C249     C      0.309790000000     0.479120000000     0.045140000000     0.0644049  
C250     C      0.299080000000     0.442540000000     0.008230000000    -0.0285111  
C251     C      0.316280000000     0.527960000000     0.035090000000     0.0652224  
C252     C      0.326360000000     0.564580000000     0.072590000000    -0.118585   
C253     C      0.330430000000     0.512110000000     0.011370000000    -0.0501469  
C254     C      0.334840000000     0.589570000000     0.062820000000     0.323184   
C255     C      0.307760000000     0.589440000000     0.992760000000    -0.00450193 
C256     C      0.295580000000     0.494970000000     0.068730000000    -0.0494019  
Cd1      Cd     0.323940000000     0.332420000000     0.021170000000     0.5077     
Cd2      Cd     0.328180000000     0.676340000000     0.013940000000     0.51907    
Cd3      Cd     0.661850000000     0.335110000000     0.032730000000     0.516121   
Cd4      Cd     0.661690000000     0.677560000000     0.979170000000     0.510286   
Cd5      Cd     0.829200000000     0.180620000000     0.523210000000     0.510761   
Cd6      Cd     0.823440000000     0.840740000000     0.478040000000     0.515569   
Cd7      Cd     0.159960000000     0.827340000000     0.524660000000     0.507323   
Cd8      Cd     0.163120000000     0.169080000000     0.518120000000     0.518416   
F1       F      0.136870000000     0.093950000000     0.448120000000    -0.420391   
F2       F      0.894260000000     0.862970000000     0.563310000000    -0.423932   
F3       F      0.782070000000     0.908600000000     0.543900000000    -0.4189     
F4       F      0.093410000000     0.211930000000     0.469910000000    -0.41216    
F5       F      0.754600000000     0.808590000000     0.556190000000    -0.421441   
F6       F      0.713090000000     0.672930000000     0.115520000000    -0.426277   
F7       F      0.756710000000     0.195100000000     0.609320000000    -0.425359   
F8       F      0.669130000000     0.266110000000     0.134770000000    -0.425438   
F9       F      0.691870000000     0.405610000000     0.952980000000    -0.422657   
F10      F      0.289090000000     0.675870000000     0.863330000000    -0.419564   
F11      F      0.256590000000     0.685370000000     0.106360000000    -0.421271   
F12      F      0.401130000000     0.675690000000     0.924510000000    -0.423289   
F13      F      0.210710000000     0.168310000000     0.660120000000    -0.424682   
F14      F      0.162710000000     0.199330000000     0.358530000000    -0.410782   
F15      F      0.589630000000     0.349590000000     0.944360000000    -0.421849   
F16      F      0.336090000000     0.601570000000     0.104420000000    -0.42245    
H1       H      0.147750000000     0.966400000000     0.541610000000     0.0465765  
H2       H      0.190020000000     0.046210000000     0.556480000000     0.0436504  
H3       H      0.135460000000     0.047300000000     0.459960000000     0.0842421  
H4       H      0.208890000000     0.911540000000     0.478780000000     0.0448834  
H5       H      0.166170000000     0.078830000000     0.579020000000     0.04985    
H6       H      0.148610000000     0.943650000000     0.431250000000     0.0412834  
H7       H      0.202970000000     0.945330000000     0.528700000000     0.0408065  
H8       H      0.146560000000     0.899780000000     0.437450000000     0.0501345  
H9       H      0.141500000000     0.008490000000     0.555360000000     0.0521662  
H10      H      0.192120000000     0.090230000000     0.554290000000     0.0592847  
H11      H      0.195790000000     0.983000000000     0.432980000000     0.0511378  
H12      H      0.194750000000     0.058090000000     0.499540000000     0.0474787  
H13      H      0.201730000000     0.901550000000     0.535850000000     0.0516859  
H14      H      0.127960000000     0.080060000000     0.510120000000     0.0018534  
H15      H      0.142920000000     0.933600000000     0.489220000000     0.0440552  
H16      H      0.175290000000     0.934550000000     0.547200000000     0.0445772  
H17      H      0.189510000000     0.025130000000     0.446710000000     0.0487072  
H18      H      0.163300000000     0.058390000000     0.443610000000     0.0901601  
H19      H      0.173580000000     0.910350000000     0.415700000000     0.044793   
H20      H      0.002380000000     0.802130000000     0.570320000000     0.0511289  
H21      H      0.944820000000     0.819610000000     0.442940000000     0.0411899  
H22      H      0.940050000000     0.865570000000     0.557660000000     0.0835155  
H23      H      0.071900000000     0.789660000000     0.526680000000     0.0465232  
H24      H      0.913380000000     0.845830000000     0.426230000000     0.0437147  
H25      H      0.041690000000     0.849600000000     0.589270000000     0.0411511  
H26      H      0.040760000000     0.801760000000     0.476940000000     0.0403071  
H27      H      0.084830000000     0.850120000000     0.587490000000     0.0501628  
H28      H      0.961730000000     0.810280000000     0.554760000000     0.0481132  
H29      H      0.901970000000     0.817240000000     0.438730000000     0.0509594  
H30      H      0.021880000000     0.859160000000     0.480420000000     0.0458861  
H31      H      0.931600000000     0.809470000000     0.495630000000     0.0464774  
H32      H      0.083770000000     0.801700000000     0.474570000000     0.0518336  
H33      H      0.909470000000     0.877460000000     0.507030000000    -0.000384311
H34      H      0.053500000000     0.858630000000     0.534470000000     0.0429573  
H35      H      0.053000000000     0.830600000000     0.468750000000     0.0432096  
H36      H      0.981200000000     0.867400000000     0.465050000000     0.0510788  
H37      H      0.929160000000     0.836000000000     0.562330000000     0.0890982  
H38      H      0.072680000000     0.822130000000     0.602570000000     0.0460887  
H39      H      0.843370000000     0.018480000000     0.549470000000     0.0527192  
H40      H      0.819320000000     0.962680000000     0.419460000000     0.0423929  
H41      H      0.779780000000     0.955090000000     0.541670000000     0.0879234  
H42      H      0.856120000000     0.088890000000     0.507250000000     0.0464287  
H43      H      0.793270000000     0.929660000000     0.409270000000     0.044707   
H44      H      0.798550000000     0.059840000000     0.578360000000     0.043977   
H45      H      0.840530000000     0.058390000000     0.458700000000     0.0406142  
H46      H      0.799800000000     0.104170000000     0.578270000000     0.0573067  
H47      H      0.834200000000     0.977340000000     0.532120000000     0.0511776  
H48      H      0.822360000000     0.919240000000     0.411420000000     0.0524046  
H49      H      0.784240000000     0.040880000000     0.471630000000     0.0476333  
H50      H      0.832580000000     0.949050000000     0.468970000000     0.0497913  
H51      H      0.842380000000     0.102410000000     0.458640000000     0.0513929  
H52      H      0.768090000000     0.924540000000     0.487910000000     0.00219242 
H53      H      0.788280000000     0.073050000000     0.525710000000     0.0460898  
H54      H      0.812730000000     0.072340000000     0.456310000000     0.0442202  
H55      H      0.774940000000     0.999660000000     0.454470000000     0.0527327  
H56      H      0.809040000000     0.944650000000     0.541910000000     0.0922588  
H57      H      0.826840000000     0.090230000000     0.589870000000     0.0488914  
H58      H      0.982390000000     0.158840000000     0.499020000000     0.0530289  
H59      H      0.048680000000     0.176830000000     0.609510000000     0.0428797  
H60      H      0.049140000000     0.218120000000     0.487640000000     0.0880537  
H61      H      0.914600000000     0.155340000000     0.558660000000     0.0478773  
H62      H      0.083310000000     0.200620000000     0.610190000000     0.0440161  
H63      H      0.948460000000     0.208520000000     0.474670000000     0.0424409  
H64      H      0.947520000000     0.169550000000     0.599190000000     0.0406458  
H65      H      0.905200000000     0.212970000000     0.479520000000     0.0509023  
H66      H      0.024110000000     0.163730000000     0.505330000000     0.0517874  
H67      H      0.090850000000     0.170240000000     0.602810000000     0.0540685  
H68      H      0.972200000000     0.221980000000     0.578840000000     0.0462671  
H69      H      0.056760000000     0.163040000000     0.555780000000     0.0507206  
H70      H      0.904230000000     0.174470000000     0.603160000000     0.0505207  
H71      H      0.083850000000     0.227380000000     0.530160000000     0.000978957
H72      H      0.938100000000     0.221790000000     0.527220000000     0.042782   
H73      H      0.937570000000     0.199560000000     0.598310000000     0.0420256  
H74      H      0.014030000000     0.226850000000     0.585420000000     0.0520335  
H75      H      0.056830000000     0.187460000000     0.483540000000     0.0946231  
H76      H      0.915380000000     0.183960000000     0.466840000000     0.0489687  
H77      H      0.743670000000     0.710210000000     0.707400000000     0.0515812  
H78      H      0.804240000000     0.775410000000     0.689510000000     0.0435658  
H79      H      0.738480000000     0.791240000000     0.635400000000     0.0856719  
H80      H      0.728930000000     0.679360000000     0.841610000000     0.0480585  
H81      H      0.807720000000     0.813950000000     0.655690000000     0.05336    
H82      H      0.693360000000     0.730030000000     0.761410000000     0.0422845  
H83      H      0.755440000000     0.711470000000     0.828650000000     0.04138    
H84      H      0.670540000000     0.713300000000     0.826880000000     0.0521776  
H85      H      0.763020000000     0.737370000000     0.654260000000     0.0481928  
H86      H      0.822850000000     0.793430000000     0.619800000000     0.0559486  
H87      H      0.734980000000     0.766490000000     0.805630000000     0.047073   
H88      H      0.795340000000     0.762410000000     0.635640000000     0.0463343  
H89      H      0.733080000000     0.694700000000     0.895150000000     0.0533954  
H90      H      0.761740000000     0.824860000000     0.616860000000     0.0101454  
H91      H      0.700030000000     0.743240000000     0.816400000000     0.0444524  
H92      H      0.736450000000     0.732410000000     0.855770000000     0.0437391  
H93      H      0.754310000000     0.793680000000     0.752460000000     0.054188   
H94      H      0.757150000000     0.771390000000     0.604630000000     0.0889415  
H95      H      0.687170000000     0.691850000000     0.795970000000     0.0473649  
H96      H      0.791010000000     0.760590000000     0.201030000000     0.051174   
H97      H      0.709970000000     0.763460000000     0.135390000000     0.0416624  
H98      H      0.729110000000     0.696840000000     0.188170000000     0.0838243  
H99      H      0.810390000000     0.817250000000     0.291490000000     0.0461501  
H100     H      0.677660000000     0.737920000000     0.121510000000     0.0448314  
H101     H      0.791820000000     0.747120000000     0.321700000000     0.0426549  
H102     H      0.772620000000     0.811440000000     0.258440000000     0.0414402  
H103     H      0.809070000000     0.769140000000     0.388200000000     0.0541655  
H104     H      0.763930000000     0.740380000000     0.149700000000     0.0477948  
H105     H      0.691360000000     0.744200000000     0.067420000000     0.0506306  
H106     H      0.737690000000     0.767970000000     0.303460000000     0.0495608  
H107     H      0.729180000000     0.744980000000     0.102610000000     0.0458679  
H108     H      0.789840000000     0.834060000000     0.323950000000     0.0536789  
H109     H      0.691270000000     0.691140000000     0.156910000000     0.000411058
H110     H      0.771650000000     0.766070000000     0.350960000000     0.0483236  
H111     H      0.760390000000     0.803940000000     0.313760000000     0.0477989  
H112     H      0.710630000000     0.747620000000     0.252240000000     0.0527887  
H113     H      0.740540000000     0.706530000000     0.133550000000     0.0886646  
H114     H      0.823160000000     0.774400000000     0.333990000000     0.0463888  
H115     H      0.739360000000     0.227650000000     0.845710000000     0.0529736  
H116     H      0.798510000000     0.250670000000     0.723320000000     0.0419141  
H117     H      0.736150000000     0.223710000000     0.669940000000     0.084231   
H118     H      0.726530000000     0.276790000000     0.955000000000     0.0500903  
H119     H      0.803410000000     0.250180000000     0.640780000000     0.0441999  
H120     H      0.687080000000     0.260560000000     0.835300000000     0.0448028  
H121     H      0.750790000000     0.284060000000     0.888930000000     0.0422292  
H122     H      0.666020000000     0.284640000000     0.894720000000     0.0602696  
H123     H      0.759350000000     0.214560000000     0.775620000000     0.0486637  
H124     H      0.820780000000     0.227280000000     0.665050000000     0.0509919  
H125     H      0.726710000000     0.295070000000     0.782690000000     0.0497582  
H126     H      0.792980000000     0.219500000000     0.725610000000     0.0466121  
H127     H      0.730140000000     0.307970000000     0.948830000000     0.0565936  
H128     H      0.759690000000     0.230510000000     0.603120000000    -0.000640211
H129     H      0.693920000000     0.291480000000     0.833730000000     0.0488887  
H130     H      0.730970000000     0.305150000000     0.865050000000     0.0485365  
H131     H      0.746550000000     0.281910000000     0.712410000000     0.052732   
H132     H      0.756790000000     0.203970000000     0.695300000000     0.089618   
H133     H      0.682510000000     0.260800000000     0.918050000000     0.0530564  
H134     H      0.778860000000     0.242530000000     0.238350000000     0.051244   
H135     H      0.724450000000     0.313570000000     0.240860000000     0.0421314  
H136     H      0.692130000000     0.249110000000     0.206180000000     0.0857239  
H137     H      0.823480000000     0.232540000000     0.356160000000     0.0460596  
H138     H      0.684650000000     0.321830000000     0.221580000000     0.0442971  
H139     H      0.762600000000     0.198010000000     0.317390000000     0.0428476  
H140     H      0.794630000000     0.263100000000     0.348820000000     0.0410131  
H141     H      0.784530000000     0.178250000000     0.380670000000     0.0537883  
H142     H      0.749180000000     0.263610000000     0.194820000000     0.0480681  
H143     H      0.703190000000     0.334210000000     0.178390000000     0.0520567  
H144     H      0.737650000000     0.247930000000     0.361680000000     0.0487547  
H145     H      0.729840000000     0.301050000000     0.184610000000     0.0471028  
H146     H      0.816980000000     0.244110000000     0.412410000000     0.0520023  
H147     H      0.663740000000     0.280100000000     0.198350000000    -4.76357e-05
H148     H      0.757600000000     0.211010000000     0.373350000000     0.0478962  
H149     H      0.776580000000     0.249570000000     0.391960000000     0.0458481  
H150     H      0.707920000000     0.268970000000     0.318120000000     0.0527578  
H151     H      0.710790000000     0.262710000000     0.164180000000     0.0880468  
H152     H      0.802470000000     0.189870000000     0.335620000000     0.0460897  
H153     H      0.632630000000     0.515870000000     0.968360000000     0.052314   
H154     H      0.663660000000     0.457870000000     0.089230000000     0.0424149  
H155     H      0.694770000000     0.452140000000     0.957260000000     0.0861072  
H156     H      0.625990000000     0.588350000000     0.008270000000     0.0460495  
H157     H      0.690240000000     0.424990000000     0.091460000000     0.044175   
H158     H      0.676750000000     0.554000000000     0.926620000000     0.0425811  
H159     H      0.642390000000     0.557690000000     0.055590000000     0.0419224  
H160     H      0.677860000000     0.598050000000     0.922400000000     0.052721   
H161     H      0.641880000000     0.474450000000     0.982810000000     0.0502714  
H162     H      0.661290000000     0.414310000000     0.095560000000     0.052173   
H163     H      0.696570000000     0.536600000000     0.031280000000     0.0487441  
H164     H      0.647480000000     0.444740000000     0.042790000000     0.0488024  
H165     H      0.643260000000     0.601810000000     0.052260000000     0.0550129  
H166     H      0.710280000000     0.420780000000     0.004470000000    -0.000606118
H167     H      0.690980000000     0.567590000000     0.975040000000     0.0465871  
H168     H      0.670940000000     0.569710000000     0.050310000000     0.0478455  
H169     H      0.705960000000     0.495110000000     0.045360000000     0.0525523  
H170     H      0.665790000000     0.441590000000     0.964690000000     0.0918778  
H171     H      0.649470000000     0.585810000000     0.920220000000     0.0466329  
H172     H      0.204970000000     0.764500000000     0.813220000000     0.0517155  
H173     H      0.290150000000     0.767430000000     0.860640000000     0.0425246  
H174     H      0.269020000000     0.702860000000     0.800990000000     0.0871181  
H175     H      0.176370000000     0.817670000000     0.719580000000     0.04525    
H176     H      0.322420000000     0.740410000000     0.864170000000     0.0484158  
H177     H      0.195920000000     0.747390000000     0.700220000000     0.0422844  
H178     H      0.216380000000     0.815640000000     0.743070000000     0.0406934  
H179     H      0.172720000000     0.764530000000     0.636140000000     0.0511073  
H180     H      0.235900000000     0.745330000000     0.856630000000     0.0498918  
H181     H      0.312000000000     0.745960000000     0.921490000000     0.0531336  
H182     H      0.250490000000     0.772910000000     0.696840000000     0.0468123  
H183     H      0.272300000000     0.747950000000     0.894320000000     0.0480893  
H184     H      0.193630000000     0.833730000000     0.678880000000     0.0514979  
H185     H      0.308610000000     0.698320000000     0.825490000000     0.00453517 
H186     H      0.212960000000     0.764920000000     0.661100000000     0.0450853  
H187     H      0.225190000000     0.805590000000     0.686680000000     0.0443669  
H188     H      0.281500000000     0.753940000000     0.740430000000     0.052889   
H189     H      0.259690000000     0.709760000000     0.858840000000     0.091411   
H190     H      0.163170000000     0.773570000000     0.692430000000     0.0452652  
H191     H      0.240910000000     0.719370000000     0.342360000000     0.0522782  
H192     H      0.296540000000     0.744830000000     0.215240000000     0.042194   
H193     H      0.235160000000     0.713260000000     0.167290000000     0.0841962  
H194     H      0.226720000000     0.768770000000     0.450920000000     0.0462913  
H195     H      0.300070000000     0.743970000000     0.132500000000     0.0447693  
H196     H      0.186830000000     0.749240000000     0.334290000000     0.041777   
H197     H      0.250000000000     0.776570000000     0.383500000000     0.0403838  
H198     H      0.165360000000     0.772670000000     0.393860000000     0.0518088  
H199     H      0.260360000000     0.706740000000     0.271340000000     0.050123   
H200     H      0.319210000000     0.722430000000     0.156140000000     0.0544391  
H201     H      0.223770000000     0.785460000000     0.278170000000     0.0458339  
H202     H      0.293030000000     0.713380000000     0.218850000000     0.0493448  
H203     H      0.229030000000     0.800030000000     0.443590000000     0.0500054  
H204     H      0.256910000000     0.720810000000     0.098470000000     0.000163736
H205     H      0.192040000000     0.780470000000     0.330990000000     0.0431117  
H206     H      0.228940000000     0.796420000000     0.359780000000     0.0426514  
H207     H      0.243030000000     0.772730000000     0.206950000000     0.0510921  
H208     H      0.257450000000     0.695220000000     0.191820000000     0.0919391  
H209     H      0.183650000000     0.750290000000     0.417400000000     0.0473492  
H210     H      0.508800000000     0.733670000000     0.962020000000     0.0513885  
H211     H      0.447550000000     0.699720000000     0.069160000000     0.0427579  
H212     H      0.446860000000     0.672300000000     0.933270000000     0.083952   
H213     H      0.580870000000     0.733190000000     0.004310000000     0.0459342  
H214     H      0.416160000000     0.672360000000     0.068630000000     0.0502413  
H215     H      0.544070000000     0.691230000000     0.910760000000     0.0421171  
H216     H      0.549320000000     0.716440000000     0.048260000000     0.0411268  
H217     H      0.586740000000     0.687100000000     0.905920000000     0.0519146  
H218     H      0.467790000000     0.724900000000     0.971950000000     0.04818    
H219     H      0.404340000000     0.701440000000     0.068880000000     0.0540715  
H220     H      0.525850000000     0.664400000000     0.011770000000     0.0469027  
H221     H      0.435550000000     0.716840000000     0.022720000000     0.0461609  
H222     H      0.592140000000     0.712470000000     0.045240000000     0.0517451  
H223     H      0.415290000000     0.653010000000     0.970410000000     0.0034149  
H224     H      0.555610000000     0.671880000000     0.954280000000     0.0446405  
H225     H      0.558710000000     0.686850000000     0.036030000000     0.0445432  
H226     H      0.484870000000     0.655670000000     0.021820000000     0.0529245  
H227     H      0.435440000000     0.701190000000     0.944550000000     0.0894152  
H228     H      0.577360000000     0.716860000000     0.914790000000     0.0463158  
H229     H      0.290590000000     0.254380000000     0.743820000000     0.0510166  
H230     H      0.212990000000     0.259360000000     0.663250000000     0.0421953  
H231     H      0.225370000000     0.194560000000     0.730780000000     0.0835068  
H232     H      0.310230000000     0.311170000000     0.835650000000     0.0462092  
H233     H      0.179640000000     0.235610000000     0.647910000000     0.0457096  
H234     H      0.286510000000     0.241970000000     0.862650000000     0.0413624  
H235     H      0.273180000000     0.307620000000     0.798650000000     0.0406609  
H236     H      0.303300000000     0.262570000000     0.931280000000     0.0505115  
H237     H      0.264200000000     0.234740000000     0.690230000000     0.0479843  
H238     H      0.196060000000     0.237900000000     0.595710000000     0.0535387  
H239     H      0.234360000000     0.267230000000     0.837520000000     0.0464567  
H240     H      0.232120000000     0.238160000000     0.637410000000     0.0462888  
H241     H      0.289840000000     0.328790000000     0.866800000000     0.0518345  
H242     H      0.188600000000     0.189640000000     0.694560000000     0.000523418
H243     H      0.266880000000     0.262230000000     0.889910000000     0.0436977  
H244     H      0.259080000000     0.300700000000     0.852430000000     0.0436435  
H245     H      0.207950000000     0.247630000000     0.783860000000     0.051869   
H246     H      0.239500000000     0.200850000000     0.676790000000     0.0891445  
H247     H      0.319240000000     0.266810000000     0.878840000000     0.0458209  
H248     H      0.245910000000     0.285410000000     0.288230000000     0.0518474  
H249     H      0.252070000000     0.202890000000     0.359320000000     0.0424319  
H250     H      0.188900000000     0.216450000000     0.291680000000     0.0884043  
H251     H      0.301630000000     0.309700000000     0.201810000000     0.046448   
H252     H      0.227360000000     0.169010000000     0.371020000000     0.0466028  
H253     H      0.234990000000     0.284260000000     0.168360000000     0.0422905  
H254     H      0.298730000000     0.270560000000     0.233710000000     0.0405138  
H255     H      0.255440000000     0.304180000000     0.102840000000     0.0508515  
H256     H      0.226960000000     0.256420000000     0.338070000000     0.0495152  
H257     H      0.231410000000     0.183990000000     0.424950000000     0.0539749  
H258     H      0.260660000000     0.231050000000     0.188770000000     0.0465396  
H259     H      0.231650000000     0.222300000000     0.386690000000     0.0478258  
H260     H      0.319650000000     0.290400000000     0.168680000000     0.0516576  
H261     H      0.185940000000     0.177960000000     0.327260000000     0.00510331 
H262     H      0.255760000000     0.265740000000     0.139800000000     0.0437621  
H263     H      0.292990000000     0.257750000000     0.177940000000     0.0433562  
H264     H      0.241710000000     0.202000000000     0.238670000000     0.0526821  
H265     H      0.194330000000     0.230440000000     0.346480000000     0.0919882  
H266     H      0.258180000000     0.319030000000     0.157250000000     0.0464639  
H267     H      0.478340000000     0.296480000000     0.962350000000     0.0517879  
H268     H      0.540930000000     0.316510000000     0.078980000000     0.0429133  
H269     H      0.544100000000     0.355480000000     0.954620000000     0.0836578  
H270     H      0.409790000000     0.290030000000     0.014610000000     0.0465451  
H271     H      0.573850000000     0.341640000000     0.087300000000     0.0458363  
H272     H      0.441190000000     0.346220000000     0.941600000000     0.0415118  
H273     H      0.443120000000     0.301620000000     0.058820000000     0.0407669  
H274     H      0.398310000000     0.349460000000     0.948700000000     0.0505938  
H275     H      0.519810000000     0.302770000000     0.971220000000     0.0493035  
H276     H      0.583800000000     0.312160000000     0.078370000000     0.0569525  
H277     H      0.464990000000     0.357990000000     0.045190000000     0.0461702  
H278     H      0.552110000000     0.303020000000     0.027290000000     0.0488114  
H279     H      0.400300000000     0.304320000000     0.066520000000     0.0516108  
H280     H      0.576780000000     0.368860000000     0.997370000000     0.00077387 
H281     H      0.431670000000     0.357460000000     0.996640000000     0.0431703  
H282     H      0.432790000000     0.331350000000     0.065180000000     0.0434903  
H283     H      0.506470000000     0.364500000000     0.053470000000     0.0514374  
H284     H      0.553530000000     0.325320000000     0.955550000000     0.0904985  
H285     H      0.408380000000     0.320430000000     0.935200000000     0.0460283  
H286     H      0.282050000000     0.488480000000     0.091020000000     0.0521576  
H287     H      0.295130000000     0.554880000000     0.976040000000     0.0455436  
H288     H      0.340370000000     0.554760000000     0.090240000000     0.0829795  
H289     H      0.275800000000     0.417410000000     0.038830000000     0.0464893  
H290     H      0.319210000000     0.588100000000     0.962100000000     0.0543841  
H291     H      0.331170000000     0.451920000000     0.104520000000     0.0416316  
H292     H      0.284170000000     0.451900000000     0.992730000000     0.0415658  
H293     H      0.335690000000     0.408240000000     0.097770000000     0.0506463  
H294     H      0.287500000000     0.531080000000     0.082380000000     0.0502381  
H295     H      0.292130000000     0.599180000000     0.981740000000     0.0635847  
H296     H      0.338430000000     0.476030000000     0.997470000000     0.046818   
H297     H      0.285720000000     0.565770000000     0.031350000000     0.0502837  
H298     H      0.288200000000     0.408200000000     0.984960000000     0.05202    
H299     H      0.352490000000     0.588520000000     0.048240000000     0.00313941 
H300     H      0.341010000000     0.442520000000     0.048390000000     0.0437715  
H301     H      0.313350000000     0.442510000000     0.982590000000     0.0442298  
H302     H      0.343970000000     0.518590000000     0.989090000000     0.0535709  
H303     H      0.311390000000     0.565320000000     0.096530000000     0.0920376  
H304     H      0.307210000000     0.417420000000     0.113410000000     0.0459205  
N1       N      0.161540000000     0.094160000000     0.513240000000    -0.178205   
N2       N      0.161020000000     0.044480000000     0.511990000000    -0.103086   
N3       N      0.176820000000     0.947020000000     0.477500000000    -0.112512   
N4       N      0.175360000000     0.897570000000     0.484060000000    -0.153386   
N5       N      0.896360000000     0.843800000000     0.490600000000    -0.180805   
N6       N      0.944790000000     0.844590000000     0.497650000000    -0.103351   
N7       N      0.038800000000     0.824120000000     0.535750000000    -0.11239    
N8       N      0.087230000000     0.823000000000     0.535750000000    -0.152748   
N9       N      0.801350000000     0.912070000000     0.471440000000    -0.180703   
N10      N      0.798250000000     0.961530000000     0.479550000000    -0.102732   
N11      N      0.821290000000     0.056630000000     0.521140000000    -0.112026   
N12      N      0.824980000000     0.105980000000     0.523960000000    -0.151745   
N13      N      0.094650000000     0.192440000000     0.542710000000    -0.17972    
N14      N      0.046630000000     0.199170000000     0.550730000000    -0.10297    
N15      N      0.949850000000     0.186310000000     0.533700000000    -0.111727   
N16      N      0.901640000000     0.187690000000     0.534010000000    -0.152272   
N17      N      0.791190000000     0.807020000000     0.592220000000    -0.177996   
N18      N      0.770380000000     0.784450000000     0.668490000000    -0.102273   
N19      N      0.725670000000     0.719960000000     0.789510000000    -0.11221    
N20      N      0.700280000000     0.699640000000     0.862180000000    -0.152122   
N21      N      0.695750000000     0.709000000000     0.093520000000    -0.180794   
N22      N      0.718570000000     0.731090000000     0.167910000000    -0.103021   
N23      N      0.782790000000     0.778040000000     0.284520000000    -0.112141   
N24      N      0.803380000000     0.803170000000     0.357480000000    -0.151811   
N25      N      0.790790000000     0.215970000000     0.627750000000    -0.180777   
N26      N      0.765980000000     0.240360000000     0.696750000000    -0.102951   
N27      N      0.720140000000     0.269240000000     0.861530000000    -0.111561   
N28      N      0.696780000000     0.294270000000     0.931280000000    -0.149132   
N29      N      0.683860000000     0.303400000000     0.158220000000    -0.181883   
N30      N      0.708460000000     0.280440000000     0.229200000000    -0.103153   
N31      N      0.778470000000     0.231360000000     0.327360000000    -0.112255   
N32      N      0.804030000000     0.209350000000     0.397640000000    -0.152419   
N33      N      0.678770000000     0.407970000000     0.030830000000    -0.181055   
N34      N      0.680840000000     0.457570000000     0.024330000000    -0.102957   
N35      N      0.657680000000     0.553380000000     0.989360000000    -0.111985   
N36      N      0.657010000000     0.602820000000     0.983230000000    -0.152099   
N37      N      0.304600000000     0.711600000000     0.893260000000    -0.179728   
N38      N      0.279550000000     0.736450000000     0.825380000000    -0.102709   
N39      N      0.206470000000     0.780530000000     0.727130000000    -0.112402   
N40      N      0.180220000000     0.800410000000     0.655440000000    -0.153414   
N41      N      0.289390000000     0.708910000000     0.121240000000    -0.178979   
N42      N      0.264300000000     0.732160000000     0.191260000000    -0.103071   
N43      N      0.219770000000     0.759990000000     0.358130000000    -0.112211   
N44      N      0.196080000000     0.784780000000     0.427780000000    -0.152853   
N45      N      0.400970000000     0.682220000000     0.005310000000    -0.178777   
N46      N      0.449410000000     0.683420000000     0.003140000000    -0.102745   
N47      N      0.544240000000     0.705470000000     0.978760000000    -0.112354   
N48      N      0.592450000000     0.701580000000     0.973860000000    -0.152949   
N49      N      0.196540000000     0.204110000000     0.629220000000    -0.179893   
N50      N      0.217930000000     0.228260000000     0.702790000000    -0.103168   
N51      N      0.280640000000     0.273560000000     0.825060000000    -0.112379   
N52      N      0.300980000000     0.296970000000     0.900430000000    -0.152883   
N53      N      0.197910000000     0.187500000000     0.393600000000    -0.179011   
N54      N      0.221840000000     0.209370000000     0.320120000000    -0.102926   
N55      N      0.265570000000     0.278130000000     0.206710000000    -0.112214   
N56      N      0.288650000000     0.302190000000     0.135350000000    -0.152723   
N57      N      0.588860000000     0.336070000000     0.021720000000    -0.178733   
N58      N      0.540430000000     0.338470000000     0.019550000000    -0.103124   
N59      N      0.444380000000     0.322120000000     0.997420000000    -0.112244   
N60      N      0.396070000000     0.323940000000     0.003490000000    -0.152899   
N61      N      0.320100000000     0.602320000000     0.029500000000    -0.176001   
N62      N      0.320220000000     0.552840000000     0.029210000000    -0.102328   
N63      N      0.306070000000     0.454220000000     0.051320000000    -0.112178   
N64      N      0.309820000000     0.404880000000     0.044970000000    -0.153009   
O1       O      0.362080000000     0.316740000000     0.041710000000    -0.245699   
O2       O      0.304740000000     0.370220000000     0.005150000000    -0.246331   
O3       O      0.321700000000     0.312730000000     0.096800000000    -0.245338   
O4       O      0.314950000000     0.297300000000     0.974740000000    -0.253396   
O5       O      0.308060000000     0.330570000000     0.942460000000    -0.245528   
O6       O      0.289400000000     0.319740000000     0.063740000000    -0.252762   
O7       O      0.361230000000     0.340150000000     0.983580000000    -0.253545   
O8       O      0.329050000000     0.370440000000     0.060810000000    -0.254091   
O9       O      0.292690000000     0.684700000000     0.057630000000    -0.203453   
O10      O      0.321020000000     0.711290000000     0.965600000000    -0.252619   
O11      O      0.334880000000     0.638160000000     0.051950000000    -0.20826    
O12      O      0.365590000000     0.672500000000     0.975110000000    -0.206965   
O13      O      0.366490000000     0.687290000000     0.043260000000    -0.242876   
O14      O      0.311740000000     0.637630000000     0.994370000000    -0.228457   
O15      O      0.323330000000     0.701090000000     0.083190000000    -0.244636   
O16      O      0.311070000000     0.678160000000     0.936440000000    -0.191199   
O17      O      0.663770000000     0.308500000000     0.965260000000    -0.234428   
O18      O      0.681940000000     0.334470000000     0.107410000000    -0.251806   
O19      O      0.625140000000     0.344960000000     0.994580000000    -0.202461   
O20      O      0.678720000000     0.370870000000     0.998280000000    -0.199806   
O21      O      0.662720000000     0.375170000000     0.064510000000    -0.251955   
O22      O      0.622540000000     0.325420000000     0.057680000000    -0.245569   
O23      O      0.696140000000     0.320090000000     0.992470000000    -0.241242   
O24      O      0.664480000000     0.302660000000     0.088780000000    -0.202417   
O25      O      0.697570000000     0.684070000000     0.935390000000    -0.244258   
O26      O      0.675450000000     0.710960000000     0.025410000000    -0.25413    
O27      O      0.668790000000     0.637500000000     0.949890000000    -0.249859   
O28      O      0.624080000000     0.683480000000     0.941980000000    -0.24811    
O29      O      0.626990000000     0.696570000000     0.011210000000    -0.249161   
O30      O      0.650510000000     0.639550000000     0.014100000000    -0.245666   
O31      O      0.666370000000     0.694870000000     0.901990000000    -0.246662   
O32      O      0.684000000000     0.676700000000     0.051410000000    -0.206318   
O33      O      0.815920000000     0.142360000000     0.554030000000    -0.239854   
O34      O      0.867080000000     0.195150000000     0.498430000000    -0.247612   
O35      O      0.793650000000     0.191800000000     0.564040000000    -0.208311   
O36      O      0.807810000000     0.179180000000     0.450000000000    -0.245351   
O37      O      0.824080000000     0.212120000000     0.465830000000    -0.247584   
O38      O      0.824850000000     0.205610000000     0.592490000000    -0.255068   
O39      O      0.836570000000     0.141160000000     0.492550000000    -0.250196   
O40      O      0.866500000000     0.175770000000     0.562130000000    -0.249163   
O41      O      0.863140000000     0.830180000000     0.456740000000    -0.255539   
O42      O      0.822040000000     0.880440000000     0.444100000000    -0.250324   
O43      O      0.823260000000     0.818580000000     0.551320000000    -0.243326   
O44      O      0.817680000000     0.804820000000     0.431480000000    -0.244821   
O45      O      0.807760000000     0.837270000000     0.399350000000    -0.245192   
O46      O      0.790230000000     0.827040000000     0.523030000000    -0.196398   
O47      O      0.859730000000     0.854050000000     0.513640000000    -0.204362   
O48      O      0.801770000000     0.875300000000     0.505120000000    -0.194219   
O49      O      0.121660000000     0.813560000000     0.501250000000    -0.244394   
O50      O      0.181380000000     0.864650000000     0.528590000000    -0.247227   
O51      O      0.162750000000     0.798870000000     0.460540000000    -0.245182   
O52      O      0.165630000000     0.796070000000     0.582180000000    -0.254659   
O53      O      0.175290000000     0.830790000000     0.603850000000    -0.246709   
O54      O      0.194780000000     0.812240000000     0.486130000000    -0.253776   
O55      O      0.122360000000     0.837490000000     0.558700000000    -0.252948   
O56      O      0.154520000000     0.863280000000     0.477980000000    -0.254682   
O57      O      0.148240000000     0.130750000000     0.491630000000    -0.200729   
O58      O      0.126520000000     0.170300000000     0.560830000000    -0.251514   
O59      O      0.197460000000     0.175510000000     0.469600000000    -0.249441   
O60      O      0.183350000000     0.170710000000     0.592630000000    -0.202145   
O61      O      0.178430000000     0.203840000000     0.558530000000    -0.250642   
O62      O      0.165050000000     0.181640000000     0.436780000000    -0.18313    
O63      O      0.176660000000     0.129320000000     0.538540000000    -0.237518   
O64      O      0.128320000000     0.192070000000     0.500520000000    -0.18654    


