data_structure

_audit_creation_method RASPA-1.0
_audit_creation_date 2023-6-5
_audit_author_name 'Poobodin Mano'

_cell_length_a    58.4597
_cell_length_b    52.0846
_cell_length_c    30.2639
_cell_angle_alpha 90.0328
_cell_angle_beta  89.9064
_cell_angle_gamma 90
_cell_volume      92148.9

_symmetry_cell_setting          triclinic
_symmetry_space_group_name_Hall 'P 1'
_symmetry_space_group_name_H-M  'P 1'
_symmetry_Int_Tables_number     1

_symmetry_equiv_pos_as_xyz 'x,y,z'

loop_
_atom_site_label
_atom_site_type_symbol
_atom_site_fract_x
_atom_site_fract_y
_atom_site_fract_z
_atom_site_charge
C1       C      0.364750000000     0.343870000000     0.972950000000     0.338673   
C2       C      0.285670000000     0.327570000000     0.000290000000     0.339419   
C3       C      0.317860000000     0.411560000000     0.959610000000     0.338924   
C4       C      0.306470000000     0.344020000000     0.858390000000     0.338539   
C5       C      0.327920000000     0.678960000000     0.008960000000     0.337968   
C6       C      0.306700000000     0.752370000000     0.089180000000     0.339959   
C7       C      0.381690000000     0.744330000000     0.026510000000     0.340924   
C8       C      0.314540000000     0.757990000000     0.937150000000     0.339606   
C9       C      0.599550000000     0.348190000000     0.022620000000     0.33953    
C10      C      0.671280000000     0.349900000000     0.943240000000     0.337957   
C11      C      0.637180000000     0.422150000000     0.018540000000     0.339362   
C12      C      0.673190000000     0.350070000000     0.092730000000     0.33849    
C13      C      0.665860000000     0.684470000000     0.975930000000     0.340087   
C14      C      0.677520000000     0.753400000000     0.882240000000     0.338178   
C15      C      0.618520000000     0.749880000000     0.998460000000     0.338542   
C16      C      0.696710000000     0.768070000000     0.027170000000     0.339429   
C17      C      0.805530000000     0.264120000000     0.588440000000     0.338006   
C18      C      0.846040000000     0.190650000000     0.516170000000     0.338443   
C19      C      0.806680000000     0.259250000000     0.444190000000     0.337288   
C20      C      0.879840000000     0.266690000000     0.524490000000     0.338224   
C21      C      0.873790000000     0.845920000000     0.498500000000     0.337406   
C22      C      0.794700000000     0.848210000000     0.521690000000     0.339932   
C23      C      0.844280000000     0.924390000000     0.486480000000     0.339081   
C24      C      0.816490000000     0.865860000000     0.382540000000     0.336802   
C25      C      0.175490000000     0.845830000000     0.442690000000     0.337324   
C26      C      0.104680000000     0.835980000000     0.533150000000     0.338543   
C27      C      0.179900000000     0.844090000000     0.586780000000     0.338506   
C28      C      0.135660000000     0.913730000000     0.510060000000     0.337878   
C29      C      0.165740000000     0.235270000000     0.358950000000     0.3373     
C30      C      0.137110000000     0.178770000000     0.464780000000     0.339258   
C31      C      0.189030000000     0.253510000000     0.496430000000     0.340102   
C32      C      0.110050000000     0.258920000000     0.475790000000     0.337671   
C33      C      0.126220000000     0.983200000000     0.540150000000    -0.0279727  
C34      C      0.124350000000     0.111200000000     0.438760000000    -0.0285258  
C35      C      0.131900000000     0.142850000000     0.516940000000    -0.0109103  
C36      C      0.117780000000     0.139640000000     0.437950000000    -0.0107853  
C37      C      0.105630000000     0.058960000000     0.499160000000    -0.053029   
C38      C      0.146690000000     0.034380000000     0.477480000000    -0.0520044  
C39      C      0.124460000000     0.073610000000     0.485660000000     0.0628133  
C40      C      0.137850000000     0.114290000000     0.514550000000    -0.0283299  
C41      C      0.127920000000     0.019740000000     0.491430000000     0.0620411  
C42      C      0.115570000000     0.978420000000     0.464100000000    -0.0387487  
C43      C      0.107250000000     0.032260000000     0.501990000000    -0.0551723  
C44      C      0.121460000000     0.949450000000     0.463280000000     0.0292537  
C45      C      0.134700000000     0.955710000000     0.544810000000    -0.0105914  
C46      C      0.145040000000     0.061100000000     0.474510000000    -0.0554295  
C47      C      0.930530000000     0.811650000000     0.490220000000    -0.0279151  
C48      C      0.046750000000     0.833710000000     0.574990000000    -0.0287308  
C49      C      0.072970000000     0.809210000000     0.504660000000    -0.0108729  
C50      C      0.071840000000     0.826430000000     0.582350000000    -0.0108023  
C51      C      0.997070000000     0.799990000000     0.549300000000    -0.0529257  
C52      C      0.979090000000     0.846380000000     0.518390000000    -0.0517689  
C53      C      0.011910000000     0.820160000000     0.538550000000     0.0627859  
C54      C      0.047920000000     0.817100000000     0.499460000000    -0.0286209  
C55      C      0.964250000000     0.826160000000     0.528840000000     0.062237   
C56      C      0.927070000000     0.828020000000     0.564020000000    -0.0386963  
C57      C      0.973430000000     0.802870000000     0.544530000000    -0.0551807  
C58      C      0.901910000000     0.836460000000     0.557010000000     0.0298172  
C59      C      0.906940000000     0.820820000000     0.475590000000    -0.00948743 
C60      C      0.002720000000     0.843490000000     0.523100000000    -0.055314   
C61      C      0.865220000000     0.991680000000     0.463690000000    -0.0280584  
C62      C      0.845580000000     0.122190000000     0.547900000000    -0.0284653  
C63      C      0.861790000000     0.153850000000     0.474790000000    -0.0107942  
C64      C      0.852320000000     0.150130000000     0.556460000000    -0.0108441  
C65      C      0.875460000000     0.068590000000     0.514360000000    -0.053022   
C66      C      0.833520000000     0.046470000000     0.491490000000    -0.0518203  
C67      C      0.856540000000     0.084410000000     0.506550000000     0.0629085  
C68      C      0.854700000000     0.125720000000     0.469790000000    -0.0284482  
C69      C      0.852450000000     0.030630000000     0.499340000000     0.0619919  
C70      C      0.852680000000     0.990530000000     0.539140000000    -0.0384168  
C71      C      0.873510000000     0.041940000000     0.510920000000    -0.0550586  
C72      C      0.845550000000     0.961990000000     0.536680000000     0.0283727  
C73      C      0.857820000000     0.964200000000     0.453880000000    -0.0103786  
C74      C      0.835460000000     0.073150000000     0.495080000000    -0.0554872  
C75      C      0.053690000000     0.293810000000     0.467940000000    -0.0278783  
C76      C      0.939150000000     0.270510000000     0.560450000000    -0.0286484  
C77      C      0.911140000000     0.291250000000     0.489310000000    -0.0109403  
C78      C      0.914050000000     0.277340000000     0.568940000000    -0.0109216  
C79      C      0.987320000000     0.304860000000     0.528470000000    -0.0529203  
C80      C      0.006280000000     0.258200000000     0.500980000000    -0.0518571  
C81      C      0.972960000000     0.283870000000     0.520320000000     0.0627813  
C82      C      0.936290000000     0.283910000000     0.483400000000    -0.0285193  
C83      C      0.020630000000     0.279230000000     0.508820000000     0.0623249  
C84      C      0.058100000000     0.279320000000     0.542720000000    -0.0388287  
C85      C      0.010960000000     0.302650000000     0.522850000000    -0.0552039  
C86      C      0.083370000000     0.271430000000     0.535250000000     0.0303921  
C87      C      0.077450000000     0.285070000000     0.453200000000    -0.00934432 
C88      C      0.982630000000     0.260400000000     0.506630000000    -0.0553911  
C89      C      0.683480000000     0.791280000000     0.776400000000    -0.0282247  
C90      C      0.767540000000     0.802400000000     0.596640000000    -0.0286194  
C91      C      0.757580000000     0.852960000000     0.560130000000    -0.0108042  
C92      C      0.775550000000     0.809210000000     0.549960000000    -0.0106314  
C93      C      0.714920000000     0.795930000000     0.646750000000    -0.0529582  
C94      C      0.737130000000     0.802010000000     0.727870000000    -0.051817   
C95      C      0.736300000000     0.807990000000     0.648140000000     0.0629639  
C96      C      0.750170000000     0.844560000000     0.606440000000    -0.0284927  
C97      C      0.715760000000     0.789870000000     0.726490000000     0.0620844  
C98      C      0.704470000000     0.752100000000     0.767060000000    -0.0387612  
C99      C      0.704690000000     0.786880000000     0.685470000000    -0.0550749  
C100     C      0.698220000000     0.742040000000     0.813550000000     0.029201   
C101     C      0.676720000000     0.785560000000     0.824090000000    -0.0102033  
C102     C      0.747390000000     0.811000000000     0.689100000000    -0.0554315  
C103     C      0.810480000000     0.839940000000     0.266510000000    -0.0279896  
C104     C      0.715770000000     0.812660000000     0.114410000000    -0.028404   
C105     C      0.735630000000     0.773370000000     0.057330000000    -0.0108936  
C106     C      0.705280000000     0.807550000000     0.068990000000    -0.0108934  
C107     C      0.768190000000     0.835360000000     0.149300000000    -0.0529073  
C108     C      0.758230000000     0.814380000000     0.232170000000    -0.0517883  
C109     C      0.751900000000     0.815760000000     0.152740000000     0.0628686  
C110     C      0.744890000000     0.779980000000     0.103240000000    -0.0284837  
C111     C      0.774500000000     0.834030000000     0.228760000000     0.0620506  
C112     C      0.779990000000     0.869980000000     0.278120000000    -0.0387658  
C113     C      0.779430000000     0.844490000000     0.186870000000    -0.0550489  
C114     C      0.788600000000     0.877620000000     0.324640000000     0.0292776  
C115     C      0.820530000000     0.843210000000     0.312640000000    -0.00999793 
C116     C      0.746980000000     0.805260000000     0.194570000000    -0.0554444  
C117     C      0.758520000000     0.266450000000     0.673270000000    -0.0280153  
C118     C      0.713220000000     0.348800000000     0.850280000000    -0.0282095  
C119     C      0.678880000000     0.315260000000     0.890020000000    -0.0110418  
C120     C      0.693760000000     0.360770000000     0.877130000000    -0.0110241  
C121     C      0.714090000000     0.314580000000     0.752430000000    -0.052936   
C122     C      0.758170000000     0.298380000000     0.774920000000    -0.052058   
C123     C      0.721060000000     0.315480000000     0.796610000000     0.0629797  
C124     C      0.699120000000     0.305670000000     0.862520000000    -0.0281145  
C125     C      0.751210000000     0.297550000000     0.730650000000     0.0617858  
C126     C      0.773230000000     0.309320000000     0.666410000000    -0.0386223  
C127     C      0.728950000000     0.305740000000     0.719640000000    -0.0549326  
C128     C      0.792890000000     0.300960000000     0.635380000000     0.028074   
C129     C      0.777680000000     0.254650000000     0.645820000000    -0.0115891  
C130     C      0.743270000000     0.307260000000     0.807750000000    -0.0556171  
C131     C      0.783540000000     0.301060000000     0.354370000000    -0.0279375  
C132     C      0.694960000000     0.308320000000     0.183430000000    -0.0281084  
C133     C      0.705200000000     0.358050000000     0.143500000000    -0.0110586  
C134     C      0.676140000000     0.322340000000     0.158080000000    -0.0110452  
C135     C      0.723670000000     0.322750000000     0.279760000000    -0.0529052  
C136     C      0.756540000000     0.286450000000     0.254990000000    -0.0521976  
C137     C      0.725680000000     0.315630000000     0.235340000000     0.0630136  
C138     C      0.722470000000     0.342160000000     0.169780000000    -0.028212   
C139     C      0.754530000000     0.293580000000     0.299480000000     0.0618049  
C140     C      0.756710000000     0.266440000000     0.363910000000    -0.0388222  
C141     C      0.737890000000     0.311880000000     0.311650000000    -0.0549369  
C142     C      0.773060000000     0.251250000000     0.394350000000     0.0276273  
C143     C      0.802020000000     0.287670000000     0.381170000000    -0.0120953  
C144     C      0.742250000000     0.297340000000     0.223050000000    -0.0556446  
C145     C      0.635600000000     0.491610000000     0.054430000000    -0.02788    
C146     C      0.659240000000     0.614920000000     0.945920000000    -0.0282345  
C147     C      0.680630000000     0.644550000000     0.009630000000    -0.0103881  
C148     C      0.655830000000     0.643770000000     0.940460000000    -0.00945434 
C149     C      0.629840000000     0.570950000000     0.011270000000    -0.0528676  
C150     C      0.665540000000     0.536830000000     0.992570000000    -0.0519362  
C151     C      0.651020000000     0.580520000000     0.997230000000     0.0630141  
C152     C      0.669120000000     0.619420000000     0.025130000000    -0.0296872  
C153     C      0.644300000000     0.527200000000     0.006150000000     0.0621877  
C154     C      0.624070000000     0.490070000000     0.978470000000    -0.0388585  
C155     C      0.626440000000     0.544520000000     0.015800000000    -0.0550301  
C156     C      0.624270000000     0.460350000000     0.977170000000     0.0300982  
C157     C      0.638980000000     0.462680000000     0.058560000000    -0.00963939 
C158     C      0.668960000000     0.563260000000     0.988190000000    -0.0556615  
C159     C      0.223200000000     0.848230000000     0.678350000000    -0.0280192  
C160     C      0.282990000000     0.762900000000     0.831970000000    -0.0284524  
C161     C      0.303260000000     0.797300000000     0.897180000000    -0.0109326  
C162     C      0.303550000000     0.753870000000     0.858930000000    -0.010811   
C163     C      0.275620000000     0.808740000000     0.752980000000    -0.0528943  
C164     C      0.228550000000     0.806290000000     0.769050000000    -0.0520769  
C165     C      0.267710000000     0.799730000000     0.793800000000     0.0628366  
C166     C      0.282820000000     0.804540000000     0.868160000000    -0.028381   
C167     C      0.236460000000     0.815200000000     0.728110000000     0.0618651  
C168     C      0.220630000000     0.803850000000     0.657350000000    -0.0388213  
C169     C      0.260220000000     0.816330000000     0.720290000000    -0.0550381  
C170     C      0.200530000000     0.808650000000     0.625280000000     0.0286074  
C171     C      0.202700000000     0.856160000000     0.650520000000    -0.0115186  
C172     C      0.243980000000     0.798520000000     0.801670000000    -0.0554698  
C173     C      0.292390000000     0.785830000000     0.195730000000    -0.0281373  
C174     C      0.193870000000     0.812080000000     0.339200000000    -0.0279897  
C175     C      0.212190000000     0.848500000000     0.403520000000    -0.0109202  
C176     C      0.182350000000     0.814080000000     0.384420000000    -0.0110764  
C177     C      0.246550000000     0.789860000000     0.307890000000    -0.0528621  
C178     C      0.240380000000     0.814550000000     0.226750000000    -0.0521126  
C179     C      0.231180000000     0.810370000000     0.304870000000     0.0630142  
C180     C      0.222090000000     0.844290000000     0.357230000000    -0.0280403  
C181     C      0.255720000000     0.793950000000     0.229730000000     0.0617946  
C182     C      0.259970000000     0.759680000000     0.176910000000    -0.038615   
C183     C      0.258700000000     0.781610000000     0.270770000000    -0.0549644  
C184     C      0.269890000000     0.752360000000     0.131250000000     0.0274486  
C185     C      0.303930000000     0.781920000000     0.151080000000    -0.011365   
C186     C      0.228130000000     0.822730000000     0.263930000000    -0.0556199  
C187     C      0.557610000000     0.773740000000     0.994600000000    -0.0279871  
C188     C      0.441810000000     0.734250000000     0.060370000000    -0.028488   
C189     C      0.415690000000     0.769310000000     0.004730000000    -0.0107898  
C190     C      0.416680000000     0.739610000000     0.071250000000    -0.0108749  
C191     C      0.490340000000     0.773430000000     0.054290000000    -0.0529819  
C192     C      0.510740000000     0.733980000000     0.005440000000    -0.051995   
C193     C      0.476560000000     0.754750000000     0.034400000000     0.0628485  
C194     C      0.440800000000     0.762520000000     0.996600000000    -0.0283918  
C195     C      0.524540000000     0.752700000000     0.025280000000     0.0619539  
C196     C      0.561440000000     0.748910000000     0.060860000000    -0.0386751  
C197     C      0.514110000000     0.772550000000     0.049760000000    -0.0550588  
C198     C      0.587170000000     0.743560000000     0.052630000000     0.0288873  
C199     C      0.581790000000     0.768270000000     0.978390000000    -0.0101001  
C200     C      0.486930000000     0.734970000000     0.009750000000    -0.0555363  
C201     C      0.299130000000     0.306270000000     0.752790000000    -0.0280595  
C202     C      0.217470000000     0.299340000000     0.568900000000    -0.0287542  
C203     C      0.225810000000     0.247680000000     0.535440000000    -0.0106036  
C204     C      0.209820000000     0.292040000000     0.522230000000    -0.0105913  
C205     C      0.269700000000     0.303430000000     0.621700000000    -0.0530125  
C206     C      0.245890000000     0.300160000000     0.701740000000    -0.0518827  
C207     C      0.247640000000     0.292980000000     0.622340000000     0.0629031  
C208     C      0.232940000000     0.256490000000     0.581650000000    -0.0286741  
C209     C      0.267960000000     0.310600000000     0.701130000000     0.0621467  
C210     C      0.281710000000     0.347420000000     0.741620000000    -0.0386021  
C211     C      0.279840000000     0.312210000000     0.660650000000    -0.05513    
C212     C      0.288180000000     0.357160000000     0.788230000000     0.0289302  
C213     C      0.305460000000     0.311530000000     0.800790000000    -0.0101251  
C214     C      0.235740000000     0.291410000000     0.662750000000    -0.0553655  
C215     C      0.261650000000     0.277170000000     0.076960000000    -0.0279285  
C216     C      0.175320000000     0.266680000000     0.252500000000    -0.0285244  
C217     C      0.192190000000     0.221670000000     0.299550000000    -0.0109932  
C218     C      0.159380000000     0.251840000000     0.283430000000    -0.0110863  
C219     C      0.204490000000     0.251500000000     0.156190000000    -0.0529625  
C220     C      0.232920000000     0.293490000000     0.173590000000    -0.0519073  
C221     C      0.205830000000     0.261270000000     0.199210000000     0.0628183  
C222     C      0.206960000000     0.237600000000     0.268030000000    -0.028541   
C223     C      0.231650000000     0.283670000000     0.130570000000     0.0621843  
C224     C      0.231350000000     0.306800000000     0.061330000000    -0.0384779  
C225     C      0.217260000000     0.262530000000     0.122060000000    -0.0551446  
C226     C      0.246270000000     0.322940000000     0.029440000000     0.0289874  
C227     C      0.279530000000     0.291780000000     0.050340000000    -0.010077   
C228     C      0.220160000000     0.282440000000     0.207730000000    -0.0553329  
C229     C      0.425810000000     0.321220000000     0.962920000000    -0.0281342  
C230     C      0.539400000000     0.346730000000     0.056120000000    -0.0286283  
C231     C      0.567900000000     0.324790000000     0.986520000000    -0.0108068  
C232     C      0.564360000000     0.339880000000     0.065670000000    -0.0107298  
C233     C      0.491680000000     0.311500000000     0.024850000000    -0.0530862  
C234     C      0.472450000000     0.357640000000     0.995710000000    -0.0519439  
C235     C      0.505900000000     0.332510000000     0.016100000000     0.0630009  
C236     C      0.542830000000     0.332220000000     0.979840000000    -0.0285535  
C237     C      0.458230000000     0.336570000000     0.004220000000     0.0619664  
C238     C      0.420610000000     0.335750000000     0.037460000000    -0.0386576  
C239     C      0.468050000000     0.313410000000     0.019000000000    -0.0550337  
C240     C      0.395180000000     0.342800000000     0.029940000000     0.0287625  
C241     C      0.401990000000     0.329160000000     0.948010000000    -0.0101941  
C242     C      0.496110000000     0.355720000000     0.001540000000    -0.0556459  
C243     C      0.330680000000     0.612480000000     0.961290000000    -0.0281524  
C244     C      0.309030000000     0.476340000000     0.009670000000    -0.0281549  
C245     C      0.326960000000     0.453830000000     0.928280000000    -0.0109145  
C246     C      0.301270000000     0.449380000000     0.996280000000    -0.0110305  
C247     C      0.302140000000     0.536030000000     0.959950000000    -0.0528849  
C248     C      0.337540000000     0.553820000000     0.013960000000    -0.0521683  
C249     C      0.317150000000     0.518420000000     0.979290000000     0.0630777  
C250     C      0.333430000000     0.480470000000     0.945350000000    -0.0280656  
C251     C      0.322560000000     0.571480000000     0.994450000000     0.0618345  
C252     C      0.306350000000     0.610190000000     0.025260000000    -0.0385486  
C253     C      0.304740000000     0.562330000000     0.967330000000    -0.0549655  
C254     C      0.311580000000     0.638150000000     0.039150000000     0.0272661  
C255     C      0.338990000000     0.639460000000     0.972010000000    -0.011423   
C256     C      0.334930000000     0.527470000000     0.006490000000    -0.0556738  
Cd1      Cd     0.318390000000     0.356570000000     0.948580000000     0.50666    
Cd2      Cd     0.333390000000     0.734020000000     0.015210000000     0.506083   
Cd3      Cd     0.645810000000     0.367530000000     0.019300000000     0.506296   
Cd4      Cd     0.665130000000     0.739680000000     0.971820000000     0.506109   
Cd5      Cd     0.834690000000     0.244590000000     0.518730000000     0.506936   
Cd6      Cd     0.831920000000     0.871230000000     0.472690000000     0.506395   
Cd7      Cd     0.148490000000     0.860350000000     0.518580000000     0.50655    
Cd8      Cd     0.150750000000     0.231400000000     0.449590000000     0.506176   
H1       H      0.159810000000     0.071990000000     0.463800000000     0.0439659  
H2       H      0.135590000000     0.995360000000     0.564420000000     0.0376031  
H3       H      0.117940000000     0.986220000000     0.430110000000     0.0413     
H4       H      0.115080000000     0.144960000000     0.533770000000     0.0432734  
H5       H      0.153600000000     0.956130000000     0.549240000000     0.0484905  
H6       H      0.112690000000     0.100610000000     0.416120000000     0.0373907  
H7       H      0.136240000000     0.105990000000     0.548300000000     0.0376236  
H8       H      0.121130000000     0.147340000000     0.404290000000     0.0480545  
H9       H      0.162670000000     0.025030000000     0.469150000000     0.0485724  
H10      H      0.127440000000     0.947380000000     0.575650000000     0.046641   
H11      H      0.089690000000     0.068330000000     0.507730000000     0.0469228  
H12      H      0.107680000000     0.984010000000     0.548710000000     0.0377654  
H13      H      0.144930000000     0.152730000000     0.537570000000     0.0491986  
H14      H      0.135550000000     0.946640000000     0.439000000000     0.0411651  
H15      H      0.142170000000     0.108970000000     0.426250000000     0.0413382  
H16      H      0.155960000000     0.112150000000     0.503620000000     0.0414784  
H17      H      0.092450000000     0.021450000000     0.512740000000     0.0422354  
H18      H      0.097260000000     0.981670000000     0.473200000000     0.0411287  
H19      H      0.099110000000     0.141310000000     0.444420000000     0.0430177  
H20      H      0.013810000000     0.859340000000     0.514390000000     0.0442748  
H21      H      0.941770000000     0.810450000000     0.460520000000     0.0378264  
H22      H      0.934910000000     0.840930000000     0.589180000000     0.0415524  
H23      H      0.073560000000     0.788630000000     0.514360000000     0.0428541  
H24      H      0.909220000000     0.834130000000     0.447140000000     0.0498417  
H25      H      0.037580000000     0.832390000000     0.607170000000     0.0377279  
H26      H      0.039590000000     0.803590000000     0.475950000000     0.0379882  
H27      H      0.079790000000     0.840690000000     0.604960000000     0.0484287  
H28      H      0.972280000000     0.864370000000     0.506230000000     0.0491026  
H29      H      0.896940000000     0.804210000000     0.462930000000     0.0444288  
H30      H      0.003890000000     0.781920000000     0.561070000000     0.0470607  
H31      H      0.929130000000     0.791940000000     0.504320000000     0.0371439  
H32      H      0.081740000000     0.811140000000     0.472220000000     0.0499602  
H33      H      0.900720000000     0.857030000000     0.566790000000     0.0425437  
H34      H      0.045890000000     0.853970000000     0.563360000000     0.0419971  
H35      H      0.047150000000     0.836760000000     0.485100000000     0.0428197  
H36      H      0.962380000000     0.786900000000     0.552730000000     0.0424388  
H37      H      0.928280000000     0.808120000000     0.577530000000     0.0405062  
H38      H      0.072420000000     0.807360000000     0.598820000000     0.0426478  
H39      H      0.820550000000     0.084940000000     0.489090000000     0.0441907  
H40      H      0.864800000000     0.002760000000     0.432240000000     0.0376119  
H41      H      0.841790000000     0.000180000000     0.564460000000     0.0414626  
H42      H      0.880760000000     0.154800000000     0.476970000000     0.0427088  
H43      H      0.843390000000     0.964790000000     0.429940000000     0.0481049  
H44      H      0.848820000000     0.110970000000     0.578570000000     0.0376141  
H45      H      0.864740000000     0.117120000000     0.442220000000     0.0375194  
H46      H      0.840630000000     0.158220000000     0.581930000000     0.0490666  
H47      H      0.817190000000     0.038060000000     0.482800000000     0.0488367  
H48      H      0.872110000000     0.954050000000     0.436930000000     0.0459065  
H49      H      0.891750000000     0.076990000000     0.523370000000     0.0469214  
H50      H      0.883220000000     0.991620000000     0.475750000000     0.03768    
H51      H      0.856540000000     0.164460000000     0.444590000000     0.0484334  
H52      H      0.826770000000     0.961000000000     0.542440000000     0.042418   
H53      H      0.826950000000     0.121200000000     0.540440000000     0.0416528  
H54      H      0.836230000000     0.124790000000     0.460920000000     0.041387   
H55      H      0.888400000000     0.030200000000     0.517440000000     0.042257   
H56      H      0.870810000000     0.992650000000     0.550220000000     0.0413113  
H57      H      0.869950000000     0.150520000000     0.570180000000     0.0432568  
H58      H      0.971920000000     0.243900000000     0.500060000000     0.0439285  
H59      H      0.042220000000     0.293920000000     0.438580000000     0.0378883  
H60      H      0.050760000000     0.266770000000     0.568980000000     0.0415491  
H61      H      0.910140000000     0.312220000000     0.495960000000     0.0433691  
H62      H      0.075390000000     0.271940000000     0.424420000000     0.0501971  
H63      H      0.948850000000     0.273320000000     0.591710000000     0.0376387  
H64      H      0.943890000000     0.296590000000     0.457670000000     0.0377907  
H65      H      0.906880000000     0.263630000000     0.593460000000     0.0485055  
H66      H      0.013470000000     0.240080000000     0.490210000000     0.0491875  
H67      H      0.087330000000     0.301890000000     0.441030000000     0.0435148  
H68      H      0.980110000000     0.323020000000     0.538970000000     0.0471116  
H69      H      0.054660000000     0.313880000000     0.480590000000     0.036726   
H70      H      0.901910000000     0.287410000000     0.457910000000     0.0494122  
H71      H      0.085310000000     0.251490000000     0.547970000000     0.0425532  
H72      H      0.940330000000     0.249890000000     0.550980000000     0.0413967  
H73      H      0.937340000000     0.263700000000     0.471530000000     0.0418891  
H74      H      0.021650000000     0.319210000000     0.529140000000     0.0423907  
H75      H      0.056490000000     0.299460000000     0.555000000000     0.0403661  
H76      H      0.913290000000     0.296900000000     0.583610000000     0.0433818  
H77      H      0.763980000000     0.820150000000     0.691050000000     0.0444329  
H78      H      0.683880000000     0.812500000000     0.771940000000     0.0377292  
H79      H      0.721280000000     0.743670000000     0.757390000000     0.0413066  
H80      H      0.742950000000     0.850170000000     0.537180000000     0.0430956  
H81      H      0.685090000000     0.799980000000     0.845900000000     0.0473147  
H82      H      0.764290000000     0.781350000000     0.598010000000     0.03768    
H83      H      0.734030000000     0.854760000000     0.615050000000     0.0379777  
H84      H      0.792190000000     0.799530000000     0.543560000000     0.0486024  
H85      H      0.745910000000     0.804330000000     0.759100000000     0.0486517  
H86      H      0.657960000000     0.788460000000     0.827890000000     0.0465563  
H87      H      0.706230000000     0.793400000000     0.615460000000     0.047118   
H88      H      0.670180000000     0.783440000000     0.753770000000     0.0378282  
H89      H      0.761680000000     0.873800000000     0.560850000000     0.0497789  
H90      H      0.714440000000     0.739620000000     0.832280000000     0.041337   
H91      H      0.781400000000     0.807030000000     0.620570000000     0.0423165  
H92      H      0.763550000000     0.850350000000     0.630620000000     0.0423781  
H93      H      0.688240000000     0.777440000000     0.683340000000     0.0424891  
H94      H      0.691780000000     0.745730000000     0.741750000000     0.0414134  
H95      H      0.762910000000     0.801550000000     0.525910000000     0.0426313  
H96      H      0.734420000000     0.790140000000     0.198140000000     0.0440725  
H97      H      0.814980000000     0.820400000000     0.254280000000     0.0377577  
H98      H      0.761090000000     0.872710000000     0.277240000000     0.0414779  
H99      H      0.746270000000     0.783330000000     0.032140000000     0.0433425  
H100     H      0.819270000000     0.824470000000     0.330170000000     0.0490245  
H101     H      0.712790000000     0.833170000000     0.123050000000     0.0376651  
H102     H      0.763620000000     0.776170000000     0.103510000000     0.0377624  
H103     H      0.686420000000     0.809950000000     0.071450000000     0.0486696  
H104     H      0.754230000000     0.806180000000     0.264140000000     0.048778   
H105     H      0.839100000000     0.847580000000     0.309770000000     0.0457828  
H106     H      0.772110000000     0.843650000000     0.117360000000     0.0472546  
H107     H      0.818480000000     0.854140000000     0.243680000000     0.0375339  
H108     H      0.737500000000     0.752350000000     0.051880000000     0.0489029  
H109     H      0.774470000000     0.873730000000     0.348410000000     0.0418007  
H110     H      0.706960000000     0.800530000000     0.139520000000     0.0414798  
H111     H      0.736670000000     0.767240000000     0.128180000000     0.0414135  
H112     H      0.791890000000     0.859710000000     0.183230000000     0.0424843  
H113     H      0.787310000000     0.882650000000     0.251900000000     0.041048   
H114     H      0.711770000000     0.822250000000     0.045470000000     0.0433838  
H115     H      0.749060000000     0.307820000000     0.841680000000     0.0434023  
H116     H      0.752170000000     0.251620000000     0.696780000000     0.0376177  
H117     H      0.778920000000     0.326620000000     0.685150000000     0.0413113  
H118     H      0.663250000000     0.314890000000     0.869110000000     0.0455049  
H119     H      0.789530000000     0.244310000000     0.668370000000     0.0468284  
H120     H      0.718720000000     0.362880000000     0.824720000000     0.0375099  
H121     H      0.694060000000     0.287400000000     0.846120000000     0.0374973  
H122     H      0.700730000000     0.377140000000     0.896500000000     0.0480875  
H123     H      0.775240000000     0.292240000000     0.783900000000     0.047909   
H124     H      0.770050000000     0.239970000000     0.623550000000     0.0485942  
H125     H      0.697070000000     0.320870000000     0.743400000000     0.0476013  
H126     H      0.744100000000     0.271780000000     0.651050000000     0.038982   
H127     H      0.676050000000     0.301690000000     0.917870000000     0.047958   
H128     H      0.809240000000     0.302960000000     0.653810000000     0.0401757  
H129     H      0.728050000000     0.345010000000     0.872410000000     0.0399653  
H130     H      0.713840000000     0.301560000000     0.884760000000     0.0397643  
H131     H      0.723100000000     0.305420000000     0.685750000000     0.0426148  
H132     H      0.757800000000     0.315000000000     0.647000000000     0.0421449  
H133     H      0.680830000000     0.368670000000     0.853890000000     0.0454086  
H134     H      0.744080000000     0.291470000000     0.188910000000     0.0433205  
H135     H      0.792050000000     0.313860000000     0.329870000000     0.037573   
H136     H      0.745560000000     0.252500000000     0.346100000000     0.0413101  
H137     H      0.698760000000     0.373850000000     0.164900000000     0.0454493  
H138     H      0.814740000000     0.279220000000     0.357980000000     0.0459574  
H139     H      0.686760000000     0.296270000000     0.209390000000     0.0374392  
H140     H      0.734880000000     0.355520000000     0.185530000000     0.0374861  
H141     H      0.666070000000     0.307940000000     0.139180000000     0.0480669  
H142     H      0.769210000000     0.272390000000     0.245120000000     0.0475898  
H143     H      0.811120000000     0.302560000000     0.400830000000     0.0498317  
H144     H      0.710950000000     0.336750000000     0.289650000000     0.0476276  
H145     H      0.773040000000     0.313280000000     0.376840000000     0.0398239  
H146     H      0.714180000000     0.367030000000     0.115010000000     0.0476878  
H147     H      0.779890000000     0.234700000000     0.375230000000     0.0390117  
H148     H      0.704410000000     0.295360000000     0.160480000000     0.0399208  
H149     H      0.732100000000     0.329400000000     0.146800000000     0.0396565  
H150     H      0.735880000000     0.317740000000     0.345730000000     0.0428006  
H151     H      0.745310000000     0.279160000000     0.383910000000     0.0427344  
H152     H      0.664350000000     0.331510000000     0.182260000000     0.0454024  
H153     H      0.685500000000     0.570250000000     0.977520000000     0.0434611  
H154     H      0.646930000000     0.501290000000     0.078880000000     0.0375629  
H155     H      0.627830000000     0.497290000000     0.944570000000     0.041588   
H156     H      0.684360000000     0.656700000000     0.038990000000     0.0492142  
H157     H      0.657280000000     0.458970000000     0.066440000000     0.0493233  
H158     H      0.647650000000     0.604820000000     0.922470000000     0.0376492  
H159     H      0.658760000000     0.623680000000     0.055070000000     0.0445081  
H160     H      0.662950000000     0.649970000000     0.908070000000     0.0444027  
H161     H      0.679440000000     0.523760000000     0.985150000000     0.0488936  
H162     H      0.628930000000     0.455460000000     0.087220000000     0.0441782  
H163     H      0.615920000000     0.584020000000     0.018410000000     0.0481338  
H164     H      0.617590000000     0.496610000000     0.063060000000     0.0371443  
H165     H      0.697360000000     0.639660000000     0.994250000000     0.039699   
H166     H      0.635740000000     0.454480000000     0.949560000000     0.0426585  
H167     H      0.677210000000     0.609720000000     0.937580000000     0.0387223  
H168     H      0.682860000000     0.605850000000     0.035340000000     0.0354852  
H169     H      0.609880000000     0.537630000000     0.026550000000     0.0424228  
H170     H      0.606880000000     0.497750000000     0.987690000000     0.0406453  
H171     H      0.637210000000     0.648160000000     0.939990000000     0.0493829  
H172     H      0.237420000000     0.791300000000     0.832730000000     0.043778   
H173     H      0.224640000000     0.861820000000     0.706640000000     0.0376408  
H174     H      0.219250000000     0.783810000000     0.670020000000     0.0413029  
H175     H      0.319000000000     0.805740000000     0.882500000000     0.0440954  
H176     H      0.188040000000     0.860170000000     0.672990000000     0.0467808  
H177     H      0.283390000000     0.752930000000     0.799420000000     0.0374164  
H178     H      0.283180000000     0.825660000000     0.862520000000     0.0375976  
H179     H      0.301470000000     0.733050000000     0.866060000000     0.0486693  
H180     H      0.210350000000     0.805070000000     0.775420000000     0.0480889  
H181     H      0.206920000000     0.874550000000     0.633680000000     0.0486465  
H182     H      0.293820000000     0.809510000000     0.746310000000     0.0472427  
H183     H      0.239030000000     0.850010000000     0.658030000000     0.0387619  
H184     H      0.300870000000     0.806010000000     0.930430000000     0.0480874  
H185     H      0.184960000000     0.799660000000     0.639680000000     0.0401437  
H186     H      0.266910000000     0.757360000000     0.849310000000     0.0412851  
H187     H      0.266700000000     0.799740000000     0.885990000000     0.0406194  
H188     H      0.266860000000     0.822790000000     0.688820000000     0.042584   
H189     H      0.237410000000     0.805440000000     0.639840000000     0.042287   
H190     H      0.319250000000     0.756170000000     0.838540000000     0.044031   
H191     H      0.216160000000     0.838470000000     0.260690000000     0.0434297  
H192     H      0.297980000000     0.804710000000     0.209230000000     0.0375178  
H193     H      0.240930000000     0.759230000000     0.174700000000     0.04117    
H194     H      0.223640000000     0.839140000000     0.428010000000     0.0452221  
H195     H      0.302100000000     0.799860000000     0.131450000000     0.0458262  
H196     H      0.191230000000     0.792250000000     0.326400000000     0.037605   
H197     H      0.240720000000     0.848660000000     0.358170000000     0.0374226  
H198     H      0.163500000000     0.813120000000     0.379770000000     0.048785   
H199     H      0.237770000000     0.824110000000     0.195390000000     0.0477086  
H200     H      0.322560000000     0.779090000000     0.156830000000     0.0483708  
H201     H      0.248920000000     0.780070000000     0.339110000000     0.047767   
H202     H      0.298280000000     0.770580000000     0.218860000000     0.0393114  
H203     H      0.212250000000     0.869440000000     0.410850000000     0.0473884  
H204     H      0.259530000000     0.762190000000     0.105530000000     0.039587   
H205     H      0.185610000000     0.825710000000     0.315780000000     0.0400062  
H206     H      0.213860000000     0.857880000000     0.333700000000     0.0394253  
H207     H      0.270220000000     0.765480000000     0.274070000000     0.0428644  
H208     H      0.265090000000     0.745360000000     0.202530000000     0.042699   
H209     H      0.187380000000     0.797150000000     0.404570000000     0.0464124  
H210     H      0.476650000000     0.720440000000     0.993670000000     0.0436633  
H211     H      0.546670000000     0.777690000000     0.965270000000     0.0375456  
H212     H      0.554230000000     0.732600000000     0.080220000000     0.0413087  
H213     H      0.414880000000     0.788110000000     0.022090000000     0.0440986  
H214     H      0.580690000000     0.756200000000     0.948100000000     0.0484752  
H215     H      0.450950000000     0.729900000000     0.091720000000     0.0375422  
H216     H      0.449220000000     0.779190000000     0.980300000000     0.0374992  
H217     H      0.408750000000     0.721660000000     0.083950000000     0.048117   
H218     H      0.518480000000     0.718710000000     0.986260000000     0.0484099  
H219     H      0.589930000000     0.786660000000     0.968190000000     0.0466111  
H220     H      0.482580000000     0.788860000000     0.073050000000     0.0473009  
H221     H      0.557650000000     0.791350000000     0.015560000000     0.0382797  
H222     H      0.407070000000     0.771620000000     0.972250000000     0.0481203  
H223     H      0.589400000000     0.722370000000     0.050490000000     0.040991   
H224     H      0.442880000000     0.717030000000     0.038630000000     0.0404891  
H225     H      0.441830000000     0.745780000000     0.973740000000     0.041004   
H226     H      0.524290000000     0.787450000000     0.065030000000     0.0425035  
H227     H      0.558920000000     0.766570000000     0.081240000000     0.0410149  
H228     H      0.415910000000     0.754140000000     0.098160000000     0.0440822  
H229     H      0.218640000000     0.283470000000     0.664130000000     0.0444148  
H230     H      0.297050000000     0.285150000000     0.748550000000     0.0375936  
H231     H      0.265810000000     0.357500000000     0.731040000000     0.0414402  
H232     H      0.240810000000     0.249450000000     0.513010000000     0.0424714  
H233     H      0.295440000000     0.298270000000     0.822210000000     0.0476176  
H234     H      0.221610000000     0.320200000000     0.569280000000     0.0377179  
H235     H      0.248520000000     0.245640000000     0.591480000000     0.0377698  
H236     H      0.193760000000     0.302510000000     0.514420000000     0.0484892  
H237     H      0.236530000000     0.298860000000     0.732570000000     0.0488148  
H238     H      0.323780000000     0.306570000000     0.805860000000     0.0464372  
H239     H      0.279030000000     0.304790000000     0.590850000000     0.047016   
H240     H      0.313420000000     0.312550000000     0.730900000000     0.0378384  
H241     H      0.220960000000     0.227060000000     0.536890000000     0.0491931  
H242     H      0.272000000000     0.361700000000     0.806010000000     0.0417695  
H243     H      0.203100000000     0.295930000000     0.592360000000     0.0424515  
H244     H      0.219010000000     0.251810000000     0.605470000000     0.0424229  
H245     H      0.296890000000     0.320240000000     0.659150000000     0.0424794  
H246     H      0.295200000000     0.352220000000     0.716760000000     0.0412737  
H247     H      0.223160000000     0.298460000000     0.498430000000     0.0421461  
H248     H      0.221510000000     0.290350000000     0.240700000000     0.0440086  
H249     H      0.270610000000     0.266200000000     0.103370000000     0.0376044  
H250     H      0.218210000000     0.319680000000     0.076270000000     0.0415925  
H251     H      0.185470000000     0.204770000000     0.281240000000     0.0430645  
H252     H      0.292710000000     0.299210000000     0.073570000000     0.0489792  
H253     H      0.164850000000     0.275350000000     0.225690000000     0.0378009  
H254     H      0.219930000000     0.224710000000     0.252710000000     0.0375295  
H255     H      0.147440000000     0.265620000000     0.299460000000     0.049668   
H256     H      0.243920000000     0.309710000000     0.180640000000     0.0489452  
H257     H      0.288480000000     0.278140000000     0.027890000000     0.045519   
H258     H      0.193560000000     0.235220000000     0.149180000000     0.0471168  
H259     H      0.252890000000     0.263010000000     0.055130000000     0.037712   
H260     H      0.203140000000     0.214430000000     0.326830000000     0.0483051  
H261     H      0.246970000000     0.342840000000     0.042760000000     0.0425045  
H262     H      0.183640000000     0.282510000000     0.271320000000     0.0417546  
H263     H      0.216130000000     0.252640000000     0.287250000000     0.0414011  
H264     H      0.215970000000     0.254500000000     0.089180000000     0.0424643  
H265     H      0.221860000000     0.291370000000     0.043400000000     0.0410061  
H266     H      0.149000000000     0.238310000000     0.263310000000     0.0434657  
H267     H      0.506730000000     0.372230000000     0.994480000000     0.0439831  
H268     H      0.437340000000     0.321550000000     0.933580000000     0.0375683  
H269     H      0.427530000000     0.348500000000     0.063830000000     0.0411854  
H270     H      0.568790000000     0.303850000000     0.993460000000     0.0434063  
H271     H      0.403700000000     0.345320000000     0.924160000000     0.0478441  
H272     H      0.529390000000     0.344540000000     0.087220000000     0.0375546  
H273     H      0.535360000000     0.319280000000     0.954370000000     0.0376842  
H274     H      0.571390000000     0.354040000000     0.089560000000     0.0485277  
H275     H      0.465160000000     0.375550000000     0.984260000000     0.0482774  
H276     H      0.394120000000     0.312960000000     0.929470000000     0.0468772  
H277     H      0.498990000000     0.293530000000     0.035990000000     0.0471858  
H278     H      0.425280000000     0.301130000000     0.975530000000     0.0383015  
H279     H      0.577400000000     0.328440000000     0.955300000000     0.0489367  
H280     H      0.393330000000     0.363780000000     0.035920000000     0.0405839  
H281     H      0.538410000000     0.367180000000     0.045570000000     0.0414116  
H282     H      0.541940000000     0.352290000000     0.967300000000     0.0418211  
H283     H      0.457500000000     0.296780000000     0.025680000000     0.0424789  
H284     H      0.422460000000     0.315600000000     0.049580000000     0.0412436  
H285     H      0.564860000000     0.320660000000     0.081610000000     0.0433882  
H286     H      0.346810000000     0.514220000000     0.021690000000     0.0434008  
H287     H      0.344320000000     0.602540000000     0.942080000000     0.0373267  
H288     H      0.302330000000     0.598880000000     0.055570000000     0.0412948  
H289     H      0.314270000000     0.456040000000     0.901200000000     0.045983   
H290     H      0.356730000000     0.638210000000     0.985090000000     0.045436   
H291     H      0.295020000000     0.485540000000     0.028970000000     0.0377406  
H292     H      0.337770000000     0.492790000000     0.916470000000     0.0374632  
H293     H      0.299980000000     0.437340000000     0.026520000000     0.048522   
H294     H      0.351330000000     0.560540000000     0.034830000000     0.0476389  
H295     H      0.339910000000     0.650490000000     0.940570000000     0.0487074  
H296     H      0.288430000000     0.529320000000     0.938850000000     0.0478032  
H297     H      0.315180000000     0.613720000000     0.940010000000     0.0394745  
H298     H      0.342470000000     0.444710000000     0.913850000000     0.0480964  
H299     H      0.322210000000     0.637520000000     0.069570000000     0.039603   
H300     H      0.324340000000     0.474870000000     0.031400000000     0.0400356  
H301     H      0.348900000000     0.478960000000     0.966640000000     0.0399454  
H302     H      0.292940000000     0.575470000000     0.951690000000     0.0428421  
H303     H      0.290930000000     0.609430000000     0.003540000000     0.0424091  
H304     H      0.283850000000     0.450690000000     0.981740000000     0.0459738  
N1       N      0.129280000000     0.939020000000     0.506600000000    -0.155608   
N2       N      0.130470000000     0.992210000000     0.494990000000    -0.110629   
N3       N      0.122170000000     0.101180000000     0.484000000000    -0.113403   
N4       N      0.130210000000     0.154090000000     0.472320000000    -0.153959   
N5       N      0.893730000000     0.834020000000     0.510650000000    -0.154908   
N6       N      0.939960000000     0.829770000000     0.522510000000    -0.10961    
N7       N      0.036260000000     0.816150000000     0.542630000000    -0.113452   
N8       N      0.083850000000     0.824640000000     0.539620000000    -0.153733   
N9       N      0.850450000000     0.949510000000     0.493290000000    -0.155462   
N10      N      0.849630000000     0.003100000000     0.496220000000    -0.110485   
N11      N      0.859240000000     0.111820000000     0.511150000000    -0.113379   
N12      N      0.851980000000     0.165270000000     0.515250000000    -0.153672   
N13      N      0.090660000000     0.271870000000     0.488160000000    -0.15489    
N14      N      0.044940000000     0.276230000000     0.501830000000    -0.109282   
N15      N      0.948570000000     0.287120000000     0.525490000000    -0.11341    
N16      N      0.901150000000     0.277350000000     0.527120000000    -0.153647   
N17      N      0.683100000000     0.759540000000     0.839470000000    -0.155463   
N18      N      0.706050000000     0.780190000000     0.767150000000    -0.110463   
N19      N      0.746460000000     0.816610000000     0.607250000000    -0.113393   
N20      N      0.777010000000     0.837300000000     0.544520000000    -0.153931   
N21      N      0.809150000000     0.863170000000     0.339730000000    -0.154878   
N22      N      0.785580000000     0.843100000000     0.268500000000    -0.110092   
N23      N      0.740440000000     0.807180000000     0.113170000000    -0.113271   
N24      N      0.711690000000     0.781880000000     0.052390000000    -0.153994   
N25      N      0.791040000000     0.273720000000     0.620260000000    -0.155396   
N26      N      0.767260000000     0.288780000000     0.697480000000    -0.111324   
N27      N      0.705190000000     0.325030000000     0.829260000000    -0.113098   
N28      N      0.682430000000     0.341770000000     0.906030000000    -0.153323   
N29      N      0.792960000000     0.266930000000     0.409720000000    -0.155209   
N30      N      0.769510000000     0.281830000000     0.331640000000    -0.111802   
N31      N      0.710410000000     0.327170000000     0.203670000000    -0.113087   
N32      N      0.685490000000     0.342480000000     0.128810000000    -0.153483   
N33      N      0.632770000000     0.448020000000     0.018390000000    -0.155441   
N34      N      0.641350000000     0.499720000000     0.009400000000    -0.109812   
N35      N      0.653760000000     0.607880000000     0.991730000000    -0.111475   
N36      N      0.666770000000     0.658270000000     0.976490000000    -0.15263    
N37      N      0.195520000000     0.836460000000     0.618050000000    -0.155456   
N38      N      0.219950000000     0.821930000000     0.694490000000    -0.111239   
N39      N      0.284230000000     0.790850000000     0.825720000000    -0.11326    
N40      N      0.306140000000     0.769170000000     0.899680000000    -0.153731   
N41      N      0.294240000000     0.760370000000     0.125220000000    -0.155288   
N42      N      0.267470000000     0.785420000000     0.190250000000    -0.111439   
N43      N      0.218380000000     0.817540000000     0.343760000000    -0.112887   
N44      N      0.188960000000     0.837630000000     0.408530000000    -0.152925   
N45      N      0.596410000000     0.754980000000     0.011080000000    -0.155183   
N46      N      0.549040000000     0.751420000000     0.018980000000    -0.110476   
N47      N      0.452040000000     0.756840000000     0.038890000000    -0.113248   
N48      N      0.404360000000     0.749780000000     0.032470000000    -0.154006   
N49      N      0.301140000000     0.338240000000     0.815380000000    -0.155337   
N50      N      0.277770000000     0.319620000000     0.742110000000    -0.110416   
N51      N      0.237760000000     0.284240000000     0.581320000000    -0.113436   
N52      N      0.207180000000     0.263970000000     0.518420000000    -0.154176   
N53      N      0.270250000000     0.313570000000     0.024570000000    -0.1556     
N54      N      0.245380000000     0.295410000000     0.096330000000    -0.110259   
N55      N      0.192510000000     0.249160000000     0.233580000000    -0.113418   
N56      N      0.172690000000     0.236950000000     0.315900000000    -0.153415   
N57      N      0.386690000000     0.337320000000     0.984440000000    -0.155339   
N58      N      0.433920000000     0.339160000000     0.996780000000    -0.110633   
N59      N      0.530260000000     0.329550000000     0.021770000000    -0.113425   
N60      N      0.577730000000     0.338830000000     0.024340000000    -0.1538     
N61      N      0.324580000000     0.652920000000     0.004980000000    -0.155058   
N62      N      0.325960000000     0.598590000000     0.002440000000    -0.111552   
N63      N      0.314090000000     0.491480000000     0.969890000000    -0.113025   
N64      N      0.316750000000     0.437690000000     0.963270000000    -0.15311    
O1       O      0.306320000000     0.320670000000     0.996210000000    -0.253615   
O2       O      0.300810000000     0.365100000000     0.876100000000    -0.249084   
O3       O      0.350940000000     0.354030000000     0.000140000000    -0.250029   
O4       O      0.307230000000     0.396820000000     0.985870000000    -0.249057   
O5       O      0.328980000000     0.400740000000     0.928850000000    -0.25168    
O6       O      0.357120000000     0.340160000000     0.934310000000    -0.249323   
O7       O      0.280210000000     0.348180000000     0.980840000000    -0.248824   
O8       O      0.317330000000     0.328510000000     0.882820000000    -0.24965    
O9       O      0.298170000000     0.738520000000     0.059030000000    -0.246606   
O10      O      0.318780000000     0.770810000000     0.971740000000    -0.252574   
O11      O      0.320030000000     0.691800000000     0.041050000000    -0.246321   
O12      O      0.370980000000     0.729010000000     0.051530000000    -0.253682   
O13      O      0.370060000000     0.754730000000     0.996170000000    -0.254699   
O14      O      0.339210000000     0.691630000000     0.980610000000    -0.249388   
O15      O      0.327510000000     0.758530000000     0.084030000000    -0.25245    
O16      O      0.318930000000     0.734240000000     0.938980000000    -0.251158   
O17      O      0.659290000000     0.334820000000     0.966490000000    -0.25106    
O18      O      0.679130000000     0.369080000000     0.069290000000    -0.251935   
O19      O      0.611760000000     0.346330000000     0.988190000000    -0.250389   
O20      O      0.634000000000     0.408250000000     0.984760000000    -0.250002   
O21      O      0.644640000000     0.410760000000     0.052550000000    -0.25129    
O22      O      0.608800000000     0.359010000000     0.055510000000    -0.251924   
O23      O      0.671760000000     0.373120000000     0.955660000000    -0.251176   
O24      O      0.654800000000     0.339000000000     0.081680000000    -0.252145   
O25      O      0.664580000000     0.767470000000     0.905510000000    -0.248962   
O26      O      0.676570000000     0.775780000000     0.019810000000    -0.255362   
O27      O      0.654840000000     0.696480000000     0.946430000000    -0.251459   
O28      O      0.626690000000     0.758180000000     0.962390000000    -0.247788   
O29      O      0.631930000000     0.736540000000     0.021940000000    -0.250704   
O30      O      0.676320000000     0.698090000000     0.004140000000    -0.247832   
O31      O      0.685010000000     0.733360000000     0.900850000000    -0.250349   
O32      O      0.702260000000     0.747060000000     0.009120000000    -0.251318   
O33      O      0.839480000000     0.201600000000     0.551350000000    -0.250076   
O34      O      0.868380000000     0.266980000000     0.489030000000    -0.248186   
O35      O      0.804240000000     0.241110000000     0.575120000000    -0.249602   
O36      O      0.803540000000     0.238420000000     0.464840000000    -0.249122   
O37      O      0.823440000000     0.272660000000     0.457150000000    -0.248134   
O38      O      0.821000000000     0.277610000000     0.570650000000    -0.250275   
O39      O      0.847190000000     0.204690000000     0.482090000000    -0.253995   
O40      O      0.870350000000     0.256090000000     0.557420000000    -0.2527     
O41      O      0.810890000000     0.834950000000     0.505840000000    -0.255738   
O42      O      0.806420000000     0.880450000000     0.409860000000    -0.250401   
O43      O      0.861940000000     0.858820000000     0.525640000000    -0.250625   
O44      O      0.834270000000     0.911230000000     0.515870000000    -0.246092   
O45      O      0.848180000000     0.913000000000     0.450250000000    -0.254823   
O46      O      0.866170000000     0.844690000000     0.459390000000    -0.245736   
O47      O      0.795750000000     0.872140000000     0.514820000000    -0.249301   
O48      O      0.833670000000     0.853720000000     0.397120000000    -0.24581    
O49      O      0.115030000000     0.834700000000     0.496490000000    -0.247624   
O50      O      0.142670000000     0.904310000000     0.546140000000    -0.249115   
O51      O      0.156800000000     0.834810000000     0.452200000000    -0.245693   
O52      O      0.168680000000     0.828210000000     0.563740000000    -0.252003   
O53      O      0.175830000000     0.867580000000     0.579290000000    -0.24805    
O54      O      0.181410000000     0.864140000000     0.467760000000    -0.253477   
O55      O      0.114710000000     0.848400000000     0.563400000000    -0.254543   
O56      O      0.135040000000     0.898460000000     0.477520000000    -0.252175   
O57      O      0.133870000000     0.189800000000     0.428070000000    -0.255709   
O58      O      0.117100000000     0.258780000000     0.436200000000    -0.246042   
O59      O      0.176180000000     0.221460000000     0.386830000000    -0.253354   
O60      O      0.186900000000     0.229510000000     0.491350000000    -0.25015    
O61      O      0.173440000000     0.267260000000     0.479720000000    -0.255984   
O62      O      0.148370000000     0.247250000000     0.373130000000    -0.245775   
O63      O      0.146790000000     0.192090000000     0.494320000000    -0.249549   
O64      O      0.121960000000     0.246400000000     0.503270000000    -0.251405   
S1       S      0.099500000000     0.933650000000     0.445030000000     0.000377705
S2       S      0.885190000000     0.820670000000     0.589950000000    -0.000800683
S3       S      0.857740000000     0.946510000000     0.576760000000     0.00445585 
S4       S      0.100220000000     0.289360000000     0.564370000000    -0.00296455 
S5       S      0.686770000000     0.713790000000     0.808940000000     0.00224982 
S6       S      0.793410000000     0.908260000000     0.326120000000     0.00159863 
S7       S      0.793770000000     0.320900000000     0.594140000000     0.00483693 
S8       S      0.758000000000     0.239800000000     0.434980000000     0.00593492 
S9       S      0.598940000000     0.449800000000     0.965230000000    -0.0022843  
S10      S      0.206110000000     0.793880000000     0.579210000000     0.00305688 
S11      S      0.266520000000     0.721630000000     0.124560000000     0.00931148 
S12      S      0.601750000000     0.753210000000     0.095070000000     0.00284705 
S13      S      0.302310000000     0.383840000000     0.783620000000     0.00331737 
S14      S      0.233800000000     0.324530000000     0.981690000000     0.00154924 
S15      S      0.379630000000     0.328270000000     0.066670000000     0.00386234 
S16      S      0.287520000000     0.651890000000     0.051990000000     0.0084195  


