data_structure

_audit_creation_method RASPA-1.0
_audit_creation_date 2023-6-5
_audit_author_name 'Poobodin Mano'

_cell_length_a    57.3728
_cell_length_b    55.2335
_cell_length_c    30.2737
_cell_angle_alpha 90.0335
_cell_angle_beta  89.9119
_cell_angle_gamma 89.9999
_cell_volume      95934.2

_symmetry_cell_setting          triclinic
_symmetry_space_group_name_Hall 'P 1'
_symmetry_space_group_name_H-M  'P 1'
_symmetry_Int_Tables_number     1

_symmetry_equiv_pos_as_xyz 'x,y,z'

loop_
_atom_site_label
_atom_site_type_symbol
_atom_site_fract_x
_atom_site_fract_y
_atom_site_fract_z
_atom_site_charge
C1       C      0.382230000000     0.325760000000     0.996610000000     0.337183   
C2       C      0.309660000000     0.328580000000     0.074440000000     0.339159   
C3       C      0.343160000000     0.397960000000     0.001820000000     0.339605   
C4       C      0.307600000000     0.327000000000     0.928710000000     0.340856   
C5       C      0.344180000000     0.650470000000     0.979160000000     0.340184   
C6       C      0.302850000000     0.726280000000     0.028300000000     0.340326   
C7       C      0.381240000000     0.721830000000     0.991230000000     0.338068   
C8       C      0.315930000000     0.709470000000     0.884890000000     0.338869   
C9       C      0.702750000000     0.314670000000     0.979710000000     0.340706   
C10      C      0.622450000000     0.330470000000     0.021210000000     0.338848   
C11      C      0.687720000000     0.329280000000     0.121400000000     0.338407   
C12      C      0.671440000000     0.393940000000     0.021160000000     0.339649   
C13      C      0.667230000000     0.645510000000     0.961620000000     0.338621   
C14      C      0.685350000000     0.708060000000     0.865930000000     0.337132   
C15      C      0.620440000000     0.711000000000     0.973590000000     0.3382     
C16      C      0.699140000000     0.725160000000     0.009550000000     0.340816   
C17      C      0.818650000000     0.210880000000     0.625720000000     0.33815    
C18      C      0.831330000000     0.148060000000     0.530070000000     0.338912   
C19      C      0.801560000000     0.228420000000     0.481320000000     0.339396   
C20      C      0.880390000000     0.210030000000     0.510790000000     0.337611   
C21      C      0.798610000000     0.816960000000     0.512150000000     0.339901   
C22      C      0.877210000000     0.840200000000     0.455540000000     0.33815    
C23      C      0.811230000000     0.830340000000     0.368230000000     0.337459   
C24      C      0.822320000000     0.896980000000     0.474510000000     0.3392     
C25      C      0.183790000000     0.825070000000     0.384700000000     0.339271   
C26      C      0.121050000000     0.838370000000     0.466450000000     0.339455   
C27      C      0.197220000000     0.811240000000     0.531510000000     0.337894   
C28      C      0.180400000000     0.891190000000     0.498830000000     0.33931    
C29      C      0.195740000000     0.211390000000     0.422560000000     0.339733   
C30      C      0.177980000000     0.142470000000     0.511890000000     0.340426   
C31      C      0.189240000000     0.220050000000     0.575720000000     0.341956   
C32      C      0.122160000000     0.203290000000     0.491640000000     0.340624   
C33      C      0.204590000000     0.954760000000     0.498200000000    -0.0284195  
C34      C      0.165300000000     0.078960000000     0.543460000000    -0.0284051  
C35      C      0.201250000000     0.105970000000     0.496280000000    -0.0108723  
C36      C      0.169360000000     0.105630000000     0.554750000000    -0.0107845  
C37      C      0.199910000000     0.027470000000     0.551030000000    -0.0530455  
C38      C      0.169210000000     0.005480000000     0.491610000000    -0.0521803  
C39      C      0.185540000000     0.041910000000     0.524570000000     0.0626738  
C40      C      0.195680000000     0.079320000000     0.487600000000    -0.0284157  
C41      C      0.183620000000     0.991040000000     0.518000000000     0.0619811  
C42      C      0.174990000000     0.953030000000     0.554170000000    -0.0415957  
C43      C      0.199040000000     0.002250000000     0.547870000000    -0.0551936  
C44      C      0.169800000000     0.926050000000     0.545700000000     0.0365996  
C45      C      0.200710000000     0.928820000000     0.482700000000    -0.00965405 
C46      C      0.170110000000     0.030720000000     0.494720000000    -0.0556217  
C47      C      0.059280000000     0.822240000000     0.495890000000    -0.0284189  
C48      C      0.939470000000     0.846760000000     0.423530000000    -0.0282949  
C49      C      0.911910000000     0.824440000000     0.493650000000    -0.0111687  
C50      C      0.914180000000     0.839700000000     0.414280000000    -0.0110493  
C51      C      0.988660000000     0.813470000000     0.447770000000    -0.0530159  
C52      C      0.008970000000     0.856470000000     0.477740000000    -0.0524281  
C53      C      0.974380000000     0.832850000000     0.460230000000     0.0626972  
C54      C      0.937340000000     0.832210000000     0.498960000000    -0.0281523  
C55      C      0.023270000000     0.837100000000     0.465040000000     0.0617632  
C56      C      0.058810000000     0.839000000000     0.422630000000    -0.0416014  
C57      C      0.012880000000     0.815490000000     0.450060000000    -0.0551561  
C58      C      0.084770000000     0.845960000000     0.424150000000     0.0361102  
C59      C      0.084580000000     0.829330000000     0.504070000000    -0.0106823  
C60      C      0.984710000000     0.854440000000     0.475400000000    -0.0556624  
C61      C      0.824060000000     0.956140000000     0.536730000000    -0.0285945  
C62      C      0.822220000000     0.085940000000     0.484450000000    -0.0281336  
C63      C      0.836250000000     0.108860000000     0.567180000000    -0.0107743  
C64      C      0.815340000000     0.112270000000     0.492830000000    -0.0109079  
C65      C      0.806240000000     0.032570000000     0.534170000000    -0.0530884  
C66      C      0.844750000000     0.011060000000     0.493210000000    -0.0523269  
C67      C      0.824930000000     0.047040000000     0.520500000000     0.0628028  
C68      C      0.841910000000     0.082650000000     0.554800000000    -0.0282983  
C69      C      0.825950000000     0.996600000000     0.506530000000     0.061692   
C70      C      0.808610000000     0.964260000000     0.464570000000    -0.0414799  
C71      C      0.806640000000     0.007580000000     0.527260000000    -0.0550879  
C72      C      0.812090000000     0.938050000000     0.448690000000     0.036003   
C73      C      0.829970000000     0.929850000000     0.526020000000    -0.0101397  
C74      C      0.844320000000     0.036100000000     0.500040000000    -0.0558535  
C75      C      0.060500000000     0.200790000000     0.449060000000    -0.0284488  
C76      C      0.941780000000     0.226190000000     0.527080000000    -0.0283355  
C77      C      0.913020000000     0.204420000000     0.458370000000    -0.0109947  
C78      C      0.916310000000     0.233830000000     0.522210000000    -0.0111152  
C79      C      0.990430000000     0.230230000000     0.459730000000    -0.0531096  
C80      C      0.010590000000     0.194790000000     0.513440000000    -0.0523169  
C81      C      0.976100000000     0.215210000000     0.485230000000     0.0626071  
C82      C      0.938670000000     0.197910000000     0.465670000000    -0.0284588  
C83      C      0.024950000000     0.209990000000     0.488300000000     0.0618449  
C84      C      0.061140000000     0.229040000000     0.509380000000    -0.0415681  
C85      C      0.014650000000     0.227690000000     0.461070000000    -0.0552735  
C86      C      0.087030000000     0.224310000000     0.519580000000     0.0363028  
C87      C      0.085530000000     0.192490000000     0.456420000000    -0.00999098 
C88      C      0.986360000000     0.197270000000     0.511950000000    -0.055579   
C89      C      0.780830000000     0.767480000000     0.591030000000    -0.0283308  
C90      C      0.693900000000     0.742680000000     0.763590000000    -0.0285121  
C91      C      0.715250000000     0.701560000000     0.808360000000    -0.0109547  
C92      C      0.678900000000     0.726000000000     0.792250000000    -0.0110833  
C93      C      0.725570000000     0.734770000000     0.667730000000    -0.0531379  
C94      C      0.750550000000     0.776540000000     0.689750000000    -0.0522665  
C95      C      0.725970000000     0.742680000000     0.711660000000     0.0627034  
C96      C      0.728820000000     0.719160000000     0.779000000000    -0.0284807  
C97      C      0.750260000000     0.768550000000     0.645830000000     0.0619337  
C98      C      0.747460000000     0.792970000000     0.579940000000    -0.0415334  
C99      C      0.737530000000     0.747550000000     0.634980000000    -0.0551773  
C100     C      0.760900000000     0.810810000000     0.550220000000     0.0362718  
C101     C      0.797200000000     0.783870000000     0.564980000000    -0.0102684  
C102     C      0.738490000000     0.763800000000     0.722490000000    -0.055556   
C103     C      0.723460000000     0.775770000000     0.079600000000    -0.028504   
C104     C      0.798420000000     0.789210000000     0.274910000000    -0.0284211  
C105     C      0.788330000000     0.838930000000     0.301240000000    -0.0108962  
C106     C      0.815550000000     0.802700000000     0.304770000000    -0.0110115  
C107     C      0.779030000000     0.798390000000     0.167780000000    -0.0531473  
C108     C      0.741720000000     0.767790000000     0.188310000000    -0.0522269  
C109     C      0.772960000000     0.794580000000     0.212040000000     0.0626912  
C110     C      0.772370000000     0.823830000000     0.271650000000    -0.0284546  
C111     C      0.747860000000     0.771500000000     0.144030000000     0.061905   
C112     C      0.749670000000     0.742050000000     0.085200000000    -0.0415879  
C113     C      0.766630000000     0.787010000000     0.133960000000    -0.0551988  
C114     C      0.734730000000     0.725830000000     0.055120000000     0.0363734  
C115     C      0.705700000000     0.762030000000     0.051740000000    -0.00974919 
C116     C      0.754100000000     0.779220000000     0.222150000000    -0.0556588  
C117     C      0.726320000000     0.264950000000     0.906770000000    -0.0284718  
C118     C      0.810000000000     0.247460000000     0.725500000000    -0.0286686  
C119     C      0.793070000000     0.201820000000     0.689260000000    -0.0109191  
C120     C      0.825970000000     0.232070000000     0.696260000000    -0.0109281  
C121     C      0.783430000000     0.238750000000     0.826810000000    -0.0531786  
C122     C      0.751860000000     0.275210000000     0.803870000000    -0.0522843  
C123     C      0.780410000000     0.244830000000     0.782290000000     0.0627158  
C124     C      0.778340000000     0.218320000000     0.718710000000    -0.0284118  
C125     C      0.754730000000     0.268990000000     0.848370000000     0.0620265  
C126     C      0.755630000000     0.295850000000     0.911310000000    -0.0414827  
C127     C      0.770780000000     0.250720000000     0.859690000000    -0.0552568  
C128     C      0.740450000000     0.312420000000     0.940440000000     0.0364354  
C129     C      0.708330000000     0.279400000000     0.932830000000    -0.00984759 
C130     C      0.764580000000     0.263300000000     0.771000000000    -0.055538   
C131     C      0.695260000000     0.295530000000     0.228700000000    -0.0283775  
C132     C      0.783830000000     0.273940000000     0.399310000000    -0.0285484  
C133     C      0.763390000000     0.232410000000     0.444490000000    -0.0110204  
C134     C      0.791920000000     0.267420000000     0.445960000000    -0.0109438  
C135     C      0.730800000000     0.291700000000     0.354660000000    -0.0531661  
C136     C      0.748510000000     0.277820000000     0.272330000000    -0.0521822  
C137     C      0.749680000000     0.275680000000     0.352590000000     0.0627245  
C138     C      0.756490000000     0.240280000000     0.397880000000    -0.0283423  
C139     C      0.729620000000     0.293840000000     0.274380000000     0.0618669  
C140     C      0.721840000000     0.329080000000     0.229520000000    -0.0416082  
C141     C      0.720790000000     0.300740000000     0.316000000000    -0.0551746  
C142     C      0.714920000000     0.337470000000     0.182820000000     0.0366082  
C143     C      0.687500000000     0.299950000000     0.181260000000    -0.0100434  
C144     C      0.758500000000     0.268740000000     0.311020000000    -0.0556847  
C145     C      0.674240000000     0.453890000000     0.962970000000    -0.0285065  
C146     C      0.668700000000     0.583810000000     0.012170000000    -0.028135   
C147     C      0.666280000000     0.605920000000     0.924680000000    -0.0110611  
C148     C      0.676840000000     0.609970000000     0.006550000000    -0.0108622  
C149     C      0.690620000000     0.530070000000     0.974840000000    -0.0530117  
C150     C      0.647530000000     0.508700000000     0.993560000000    -0.0525349  
C151     C      0.670640000000     0.544560000000     0.977220000000     0.0627255  
C152     C      0.658930000000     0.579880000000     0.934830000000    -0.0281726  
C153     C      0.667540000000     0.494200000000     0.991210000000     0.0617304  
C154     C      0.677320000000     0.461740000000     0.040910000000    -0.0416787  
C155     C      0.689190000000     0.505140000000     0.981910000000    -0.0552062  
C156     C      0.671950000000     0.435310000000     0.053400000000     0.036187   
C157     C      0.667380000000     0.427500000000     0.969720000000    -0.0108695  
C158     C      0.649000000000     0.533710000000     0.986790000000    -0.0557795  
C159     C      0.271850000000     0.712470000000     0.792500000000    -0.0284375  
C160     C      0.245750000000     0.790510000000     0.602260000000    -0.0285394  
C161     C      0.197480000000     0.777220000000     0.584200000000    -0.0111839  
C162     C      0.235280000000     0.795930000000     0.556880000000    -0.0109785  
C163     C      0.256930000000     0.737560000000     0.659720000000    -0.0531248  
C164     C      0.259470000000     0.765880000000     0.736170000000    -0.0521414  
C165     C      0.246460000000     0.760450000000     0.660340000000     0.0626945  
C166     C      0.209590000000     0.772630000000     0.628400000000    -0.0283203  
C167     C      0.269980000000     0.742990000000     0.735550000000     0.0619019  
C168     C      0.307040000000     0.731120000000     0.766500000000    -0.0415013  
C169     C      0.268600000000     0.728820000000     0.696920000000    -0.0551571  
C170     C      0.320050000000     0.726820000000     0.810250000000     0.0365152  
C171     C      0.281200000000     0.708080000000     0.838950000000    -0.00964465 
C172     C      0.247780000000     0.774610000000     0.698970000000    -0.0556054  
C173     C      0.254360000000     0.735740000000     0.110730000000    -0.0282802  
C174     C      0.215690000000     0.822650000000     0.279290000000    -0.0286004  
C175     C      0.183570000000     0.792240000000     0.329340000000    -0.0108639  
C176     C      0.197350000000     0.834390000000     0.309150000000    -0.0108097  
C177     C      0.213000000000     0.786470000000     0.186070000000    -0.0531737  
C178     C      0.258690000000     0.771970000000     0.204360000000    -0.0522239  
C179     C      0.221860000000     0.789280000000     0.228830000000     0.062724   
C180     C      0.202440000000     0.782170000000     0.298690000000    -0.0285278  
C181     C      0.249780000000     0.768990000000     0.161650000000     0.0620146  
C182     C      0.269490000000     0.774910000000     0.091910000000    -0.0414828  
C183     C      0.226780000000     0.776450000000     0.152650000000    -0.0552089  
C184     C      0.288350000000     0.764420000000     0.061090000000     0.0363259  
C185     C      0.272780000000     0.722060000000     0.084380000000    -0.0100212  
C186     C      0.244920000000     0.782040000000     0.237760000000    -0.0555481  
C187     C      0.560060000000     0.736850000000     0.959940000000    -0.0283699  
C188     C      0.439630000000     0.718640000000     0.035450000000    -0.0286495  
C189     C      0.415100000000     0.746700000000     0.968550000000    -0.0108587  
C190     C      0.414340000000     0.726470000000     0.043020000000    -0.0108916  
C191     C      0.492040000000     0.748880000000     0.017740000000    -0.0532096  
C192     C      0.508790000000     0.705900000000     0.980490000000    -0.0521593  
C193     C      0.476230000000     0.731340000000     0.002980000000     0.0626524  
C194     C      0.440330000000     0.738220000000     0.963080000000    -0.028615   
C195     C      0.524610000000     0.723470000000     0.995060000000     0.0617866  
C196     C      0.561740000000     0.718520000000     0.031730000000    -0.0414897  
C197     C      0.516030000000     0.745070000000     0.013840000000    -0.055171   
C198     C      0.587020000000     0.709730000000     0.025250000000     0.0361449  
C199     C      0.584130000000     0.727950000000     0.946220000000    -0.0100932  
C200     C      0.484790000000     0.709730000000     0.984300000000    -0.0557137  
C201     C      0.216230000000     0.231440000000     0.686900000000    -0.0284352  
C202     C      0.271910000000     0.323620000000     0.826070000000    -0.0284202  
C203     C      0.289250000000     0.291330000000     0.894940000000    -0.010857   
C204     C      0.278000000000     0.334130000000     0.871410000000    -0.0107753  
C205     C      0.230380000000     0.281880000000     0.791820000000    -0.0530994  
C206     C      0.256690000000     0.275320000000     0.714890000000    -0.052315   
C207     C      0.253820000000     0.288890000000     0.791200000000     0.0627171  
C208     C      0.282650000000     0.283020000000     0.848460000000    -0.0282075  
C209     C      0.233330000000     0.267960000000     0.715710000000     0.0617995  
C210     C      0.204220000000     0.270000000000     0.658150000000    -0.0417008  
C211     C      0.220140000000     0.271530000000     0.754500000000    -0.0551982  
C212     C      0.196680000000     0.259160000000     0.613450000000     0.036508   
C213     C      0.211400000000     0.218060000000     0.643920000000    -0.0101839  
C214     C      0.266930000000     0.285730000000     0.752250000000    -0.0557131  
C215     C      0.298280000000     0.293260000000     0.176690000000    -0.0284256  
C216     C      0.205510000000     0.244500000000     0.317970000000    -0.0282778  
C217     C      0.232840000000     0.217970000000     0.383160000000    -0.0108619  
C218     C      0.193940000000     0.224330000000     0.344760000000    -0.0108702  
C219     C      0.249610000000     0.245060000000     0.240720000000    -0.0531295  
C220     C      0.254540000000     0.294710000000     0.256470000000    -0.0525604  
C221     C      0.241330000000     0.254920000000     0.280340000000     0.0627594  
C222     C      0.242690000000     0.238370000000     0.354500000000    -0.0284787  
C223     C      0.262940000000     0.284820000000     0.216900000000     0.0617567  
C224     C      0.260920000000     0.301980000000     0.143700000000    -0.0417672  
C225     C      0.260280000000     0.259800000000     0.209170000000    -0.0550266  
C226     C      0.271400000000     0.321090000000     0.112340000000     0.0356367  
C227     C      0.310550000000     0.312670000000     0.149560000000    -0.0116378  
C228     C      0.243760000000     0.279950000000     0.287990000000    -0.0556656  
C229     C      0.559780000000     0.315750000000     0.046520000000    -0.0283282  
C230     C      0.441340000000     0.318280000000     0.954860000000    -0.0286897  
C231     C      0.416160000000     0.309380000000     0.036960000000    -0.0109875  
C232     C      0.415810000000     0.310180000000     0.953660000000    -0.0109184  
C233     C      0.492650000000     0.293210000000     0.997200000000    -0.0531875  
C234     C      0.511070000000     0.340100000000     0.997050000000    -0.0522898  
C235     C      0.477570000000     0.313090000000     0.994930000000     0.0627479  
C236     C      0.441550000000     0.317690000000     0.035470000000    -0.0285121  
C237     C      0.526150000000     0.320220000000     0.999790000000     0.0618263  
C238     C      0.564330000000     0.313950000000     0.967710000000    -0.0415868  
C239     C      0.516740000000     0.296650000000     0.999680000000    -0.0551822  
C240     C      0.589990000000     0.322170000000     0.969500000000     0.0358365  
C241     C      0.584090000000     0.325930000000     0.054300000000    -0.0102456  
C242     C      0.486970000000     0.336650000000     0.994720000000    -0.055601   
C243     C      0.345850000000     0.587810000000     0.028020000000    -0.0282667  
C244     C      0.354330000000     0.460290000000     0.961570000000    -0.028416   
C245     C      0.342080000000     0.436080000000     0.044070000000    -0.0108735  
C246     C      0.361500000000     0.433900000000     0.968530000000    -0.0109305  
C247     C      0.369240000000     0.513750000000     0.013860000000    -0.053119   
C248     C      0.329550000000     0.534380000000     0.975770000000    -0.052282   
C249     C      0.351150000000     0.498740000000     0.999330000000     0.0626768  
C250     C      0.335860000000     0.462400000000     0.033630000000    -0.0283463  
C251     C      0.347650000000     0.549410000000     0.990330000000     0.0618404  
C252     C      0.363070000000     0.585430000000     0.955800000000    -0.0415507  
C253     C      0.367600000000     0.538860000000     0.009470000000    -0.0552135  
C254     C      0.357900000000     0.612180000000     0.945290000000     0.036295   
C255     C      0.337810000000     0.613890000000     0.022100000000    -0.01044    
C256     C      0.331210000000     0.509240000000     0.980160000000    -0.0555876  
Cd1      Cd     0.335870000000     0.346080000000     0.999430000000     0.505596   
Cd2      Cd     0.335870000000     0.701940000000     0.971350000000     0.505922   
Cd3      Cd     0.671010000000     0.342130000000     0.034630000000     0.505911   
Cd4      Cd     0.668000000000     0.697600000000     0.953510000000     0.505197   
Cd5      Cd     0.832770000000     0.200080000000     0.536080000000     0.50531    
Cd6      Cd     0.827230000000     0.846120000000     0.453940000000     0.505747   
Cd7      Cd     0.171160000000     0.841870000000     0.471790000000     0.506014   
Cd8      Cd     0.171500000000     0.194000000000     0.500090000000     0.505802   
H1       H      0.158880000000     0.041470000000     0.473800000000     0.0434467  
H2       H      0.211670000000     0.965400000000     0.469960000000     0.0374739  
H3       H      0.158850000000     0.961730000000     0.567100000000     0.0412546  
H4       H      0.216920000000     0.107030000000     0.517770000000     0.044162   
H5       H      0.193670000000     0.929320000000     0.448470000000     0.0483138  
H6       H      0.158820000000     0.069590000000     0.573630000000     0.0371946  
H7       H      0.211880000000     0.070200000000     0.476010000000     0.0373348  
H8       H      0.152250000000     0.114180000000     0.562210000000     0.0477939  
H9       H      0.157310000000     0.997120000000     0.468430000000     0.0481608  
H10      H      0.217840000000     0.919420000000     0.480670000000     0.0458357  
H11      H      0.211900000000     0.035830000000     0.574040000000     0.0470626  
H12      H      0.217910000000     0.954960000000     0.524960000000     0.0379729  
H13      H      0.205680000000     0.114770000000     0.464310000000     0.0478725  
H14      H      0.151250000000     0.924540000000     0.535330000000     0.0370272  
H15      H      0.151590000000     0.077620000000     0.517550000000     0.0402525  
H16      H      0.182440000000     0.078000000000     0.460840000000     0.0405331  
H17      H      0.210440000000     0.991540000000     0.568540000000     0.0423457  
H18      H      0.188640000000     0.955060000000     0.580100000000     0.0424105  
H19      H      0.180150000000     0.106670000000     0.585170000000     0.0441909  
H20      H      0.151650000000     0.899160000000     0.607240000000     0.0437007  
H21      H      0.974040000000     0.869710000000     0.485100000000     0.0430487  
H22      H      0.050110000000     0.821640000000     0.528330000000     0.0373156  
H23      H      0.049720000000     0.851830000000     0.400090000000     0.0411644  
H24      H      0.911350000000     0.804530000000     0.488340000000     0.0449599  
H25      H      0.084930000000     0.844930000000     0.527320000000     0.0456742  
H26      H      0.949410000000     0.845660000000     0.391980000000     0.0370396  
H27      H      0.945700000000     0.820210000000     0.523860000000     0.0373186  
H28      H      0.906260000000     0.853760000000     0.392720000000     0.0474589  
H29      H      0.016690000000     0.873220000000     0.489180000000     0.0473196  
H30      H      0.093430000000     0.814000000000     0.520990000000     0.0484096  
H31      H      0.980940000000     0.796790000000     0.435950000000     0.0472492  
H32      H      0.058710000000     0.803720000000     0.481310000000     0.0391984  
H33      H      0.902460000000     0.828350000000     0.524970000000     0.0483007  
H34      H      0.085980000000     0.866060000000     0.425130000000     0.0355076  
H35      H      0.940100000000     0.865840000000     0.435410000000     0.039834   
H36      H      0.937970000000     0.851130000000     0.511660000000     0.0398476  
H37      H      0.023460000000     0.800260000000     0.439870000000     0.0426158  
H38      H      0.056770000000     0.820470000000     0.408450000000     0.0435795  
H39      H      0.914030000000     0.822350000000     0.395660000000     0.0445059  
H40      H      0.107480000000     0.855520000000     0.351710000000     0.0432192  
H41      H      0.858910000000     0.046920000000     0.488940000000     0.0429853  
H42      H      0.836220000000     0.962560000000     0.562860000000     0.0371563  
H43      H      0.809630000000     0.976420000000     0.435270000000     0.0411563  
H44      H      0.821620000000     0.108860000000     0.591340000000     0.0449953  
H45      H      0.849260000000     0.928020000000     0.524160000000     0.0453382  
H46      H      0.808870000000     0.077630000000     0.462490000000     0.0371749  
H47      H      0.843310000000     0.071870000000     0.585730000000     0.0370631  
H48      H      0.817110000000     0.122510000000     0.461360000000     0.0481148  
H49      H      0.859640000000     0.002910000000     0.476970000000     0.04739    
H50      H      0.824100000000     0.918250000000     0.553950000000     0.0465262  
H51      H      0.791180000000     0.040780000000     0.549740000000     0.0473544  
H52      H      0.806020000000     0.957070000000     0.550330000000     0.0383923  
H53      H      0.851650000000     0.116870000000     0.584020000000     0.0467801  
H54      H      0.825610000000     0.938170000000     0.422300000000     0.0365671  
H55      H      0.839310000000     0.085360000000     0.466960000000     0.03966    
H56      H      0.859090000000     0.082020000000     0.537650000000     0.0391729  
H57      H      0.791780000000     0.996920000000     0.537560000000     0.0424671  
H58      H      0.790890000000     0.966500000000     0.479250000000     0.0432923  
H59      H      0.796640000000     0.112870000000     0.502540000000     0.0455482  
H60      H      0.789320000000     0.921590000000     0.380730000000     0.0449036  
H61      H      0.975660000000     0.185390000000     0.531890000000     0.043532   
H62      H      0.050700000000     0.185660000000     0.433360000000     0.0371165  
H63      H      0.052320000000     0.234640000000     0.540570000000     0.0413304  
H64      H      0.911940000000     0.217920000000     0.431220000000     0.042961   
H65      H      0.085220000000     0.173710000000     0.469690000000     0.0462151  
H66      H      0.951800000000     0.241830000000     0.540400000000     0.0373912  
H67      H      0.946380000000     0.192560000000     0.433340000000     0.0370509  
H68      H      0.909090000000     0.237750000000     0.555560000000     0.0494819  
H69      H      0.018250000000     0.181080000000     0.534450000000     0.047797   
H70      H      0.094530000000     0.191590000000     0.423860000000     0.0469637  
H71      H      0.982780000000     0.244070000000     0.438980000000     0.0468466  
H72      H      0.060380000000     0.216390000000     0.425720000000     0.0385776  
H73      H      0.903510000000     0.187910000000     0.447590000000     0.047586   
H74      H      0.088090000000     0.215760000000     0.552780000000     0.0364343  
H75      H      0.942900000000     0.211070000000     0.551320000000     0.0413332  
H76      H      0.939770000000     0.182100000000     0.488400000000     0.0408152  
H77      H      0.025290000000     0.239630000000     0.441170000000     0.0424134  
H78      H      0.059410000000     0.244340000000     0.485580000000     0.0430247  
H79      H      0.915660000000     0.250890000000     0.502760000000     0.0432614  
H80      H      0.111780000000     0.255450000000     0.563890000000     0.0445881  
H81      H      0.738980000000     0.770380000000     0.756150000000     0.0435955  
H82      H      0.791330000000     0.757420000000     0.615910000000     0.0374222  
H83      H      0.733140000000     0.803080000000     0.596680000000     0.0412706  
H84      H      0.710860000000     0.685220000000     0.788570000000     0.0430743  
H85      H      0.809540000000     0.792570000000     0.588460000000     0.0473261  
H86      H      0.682770000000     0.750210000000     0.736820000000     0.0373423  
H87      H      0.743640000000     0.709200000000     0.763660000000     0.037286   
H88      H      0.665220000000     0.737040000000     0.808770000000     0.0490858  
H89      H      0.760160000000     0.792700000000     0.698570000000     0.0480311  
H90      H      0.807900000000     0.772450000000     0.542420000000     0.0468398  
H91      H      0.715940000000     0.718620000000     0.658910000000     0.0469015  
H92      H      0.772900000000     0.753950000000     0.568250000000     0.038234   
H93      H      0.726690000000     0.695720000000     0.835980000000     0.0480673  
H94      H      0.761790000000     0.828510000000     0.567670000000     0.036876   
H95      H      0.700360000000     0.758020000000     0.784090000000     0.0412131  
H96      H      0.736070000000     0.733950000000     0.799880000000     0.0409303  
H97      H      0.736900000000     0.741020000000     0.601300000000     0.0423396  
H98      H      0.739200000000     0.778510000000     0.559570000000     0.0429357  
H99      H      0.670000000000     0.712710000000     0.770420000000     0.0435332  
H100     H      0.738450000000     0.839450000000     0.497010000000     0.0438904  
H101     H      0.749030000000     0.776020000000     0.256090000000     0.0433856  
H102     H      0.714090000000     0.790160000000     0.098310000000     0.0372575  
H103     H      0.759480000000     0.730200000000     0.108420000000     0.0413196  
H104     H      0.798960000000     0.851120000000     0.280020000000     0.0436798  
H105     H      0.689600000000     0.759460000000     0.071760000000     0.0469484  
H106     H      0.808390000000     0.775890000000     0.254770000000     0.0372005  
H107     H      0.762890000000     0.836300000000     0.249080000000     0.0370899  
H108     H      0.823020000000     0.789640000000     0.328840000000     0.0478949  
H109     H      0.727340000000     0.755910000000     0.196560000000     0.0479955  
H110     H      0.700690000000     0.773440000000     0.023000000000     0.0452527  
H111     H      0.793470000000     0.810190000000     0.159540000000     0.0469272  
H112     H      0.736300000000     0.784820000000     0.057430000000     0.0378511  
H113     H      0.777330000000     0.850520000000     0.322920000000     0.047915   
H114     H      0.728660000000     0.710130000000     0.075090000000     0.0376798  
H115     H      0.785770000000     0.779050000000     0.295820000000     0.0404145  
H116     H      0.759280000000     0.814280000000     0.292530000000     0.0405012  
H117     H      0.771760000000     0.790230000000     0.100050000000     0.0422518  
H118     H      0.762800000000     0.752190000000     0.065280000000     0.042609   
H119     H      0.830120000000     0.809660000000     0.284120000000     0.043747   
H120     H      0.753360000000     0.689170000000     0.014270000000     0.0442746  
H121     H      0.761990000000     0.268410000000     0.736850000000     0.0435508  
H122     H      0.716880000000     0.252370000000     0.884280000000     0.0373222  
H123     H      0.767820000000     0.307440000000     0.891950000000     0.0412789  
H124     H      0.800740000000     0.187290000000     0.710100000000     0.0428139  
H125     H      0.693940000000     0.284600000000     0.910100000000     0.0470133  
H126     H      0.821010000000     0.257610000000     0.749420000000     0.0373732  
H127     H      0.765840000000     0.206870000000     0.737590000000     0.0372564  
H128     H      0.837220000000     0.244320000000     0.676370000000     0.0487617  
H129     H      0.739650000000     0.289280000000     0.794700000000     0.0480668  
H130     H      0.700480000000     0.267440000000     0.958410000000     0.0459913  
H131     H      0.795580000000     0.224630000000     0.835960000000     0.0468814  
H132     H      0.736840000000     0.253770000000     0.930010000000     0.0380012  
H133     H      0.781490000000     0.193040000000     0.664570000000     0.0481303  
H134     H      0.736850000000     0.329270000000     0.921500000000     0.0374405  
H135     H      0.800590000000     0.260820000000     0.704530000000     0.0411493  
H136     H      0.768150000000     0.230920000000     0.697490000000     0.0409919  
H137     H      0.773440000000     0.245630000000     0.893820000000     0.042353   
H138     H      0.766480000000     0.283650000000     0.932220000000     0.042778   
H139     H      0.837520000000     0.221090000000     0.717900000000     0.0432705  
H140     H      0.759470000000     0.345700000000     0.989370000000     0.0440828  
H141     H      0.773030000000     0.256330000000     0.308520000000     0.0437048  
H142     H      0.693110000000     0.275890000000     0.236060000000     0.0373112  
H143     H      0.740210000000     0.334690000000     0.235630000000     0.041233   
H144     H      0.750380000000     0.239730000000     0.468260000000     0.0427271  
H145     H      0.694290000000     0.285000000000     0.160200000000     0.0465159  
H146     H      0.785620000000     0.293860000000     0.394900000000     0.0372051  
H147     H      0.737950000000     0.235170000000     0.392350000000     0.0373287  
H148     H      0.810840000000     0.271460000000     0.448780000000     0.0478015  
H149     H      0.755460000000     0.272320000000     0.240590000000     0.047889   
H150     H      0.668150000000     0.298840000000     0.179800000000     0.0469826  
H151     H      0.723810000000     0.297150000000     0.386390000000     0.0468338  
H152     H      0.683720000000     0.305800000000     0.251670000000     0.0384377  
H153     H      0.762650000000     0.212320000000     0.446350000000     0.048805   
H154     H      0.730490000000     0.335660000000     0.161130000000     0.0365259  
H155     H      0.795370000000     0.264810000000     0.374810000000     0.041008   
H156     H      0.767420000000     0.230390000000     0.373360000000     0.0413501  
H157     H      0.706170000000     0.313040000000     0.318600000000     0.0423536  
H158     H      0.710810000000     0.338260000000     0.254840000000     0.0428211  
H159     H      0.782540000000     0.279170000000     0.469960000000     0.0425311  
H160     H      0.721670000000     0.381770000000     0.156460000000     0.0446703  
H161     H      0.633360000000     0.544570000000     0.989340000000     0.0429134  
H162     H      0.666540000000     0.460220000000     0.931270000000     0.0372144  
H163     H      0.671320000000     0.473620000000     0.068430000000     0.0411275  
H164     H      0.683520000000     0.605570000000     0.907850000000     0.0449667  
H165     H      0.648400000000     0.425580000000     0.963100000000     0.0444402  
H166     H      0.678560000000     0.575630000000     0.040090000000     0.0369266  
H167     H      0.661550000000     0.568750000000     0.904550000000     0.0371288  
H168     H      0.671030000000     0.620590000000     0.035790000000     0.0474844  
H169     H      0.630810000000     0.500600000000     0.001090000000     0.047158   
H170     H      0.676630000000     0.416370000000     0.944560000000     0.0479533  
H171     H      0.707400000000     0.538220000000     0.967920000000     0.047298   
H172     H      0.693560000000     0.455110000000     0.960040000000     0.039172   
H173     H      0.653560000000     0.613890000000     0.901120000000     0.0468616  
H174     H      0.654280000000     0.434730000000     0.068540000000     0.0350748  
H175     H      0.649830000000     0.583560000000     0.020890000000     0.0394848  
H176     H      0.640040000000     0.579540000000     0.943320000000     0.0390228  
H177     H      0.704990000000     0.494490000000     0.980440000000     0.0426051  
H178     H      0.696520000000     0.464330000000     0.037380000000     0.0438846  
H179     H      0.696230000000     0.610280000000     0.006200000000     0.0452669  
H180     H      0.680850000000     0.418460000000     0.131930000000     0.0443516  
H181     H      0.239830000000     0.792360000000     0.700300000000     0.0435178  
H182     H      0.252530000000     0.714120000000     0.794530000000     0.037326   
H183     H      0.314580000000     0.747480000000     0.750380000000     0.0413096  
H184     H      0.197690000000     0.760160000000     0.564680000000     0.043916   
H185     H      0.271190000000     0.719600000000     0.862450000000     0.0470536  
H186     H      0.264810000000     0.787470000000     0.598110000000     0.0372456  
H187     H      0.201690000000     0.756260000000     0.643770000000     0.0373814  
H188     H      0.242480000000     0.813410000000     0.544800000000     0.0478393  
H189     H      0.260400000000     0.776980000000     0.765620000000     0.0480954  
H190     H      0.277640000000     0.688970000000     0.848460000000     0.0454232  
H191     H      0.256040000000     0.726480000000     0.630250000000     0.0469798  
H192     H      0.275900000000     0.696520000000     0.771280000000     0.0378844  
H193     H      0.178950000000     0.781960000000     0.590690000000     0.0488825  
H194     H      0.324720000000     0.744830000000     0.824180000000     0.0378007  
H195     H      0.243250000000     0.806510000000     0.624170000000     0.0406462  
H196     H      0.206440000000     0.788310000000     0.650770000000     0.0407198  
H197     H      0.276560000000     0.711070000000     0.695490000000     0.042309   
H198     H      0.309810000000     0.715610000000     0.743480000000     0.0425596  
H199     H      0.240890000000     0.781550000000     0.533440000000     0.0432809  
H200     H      0.365330000000     0.725140000000     0.812840000000     0.0449001  
H201     H      0.252190000000     0.784070000000     0.270510000000     0.0436711  
H202     H      0.248350000000     0.723860000000     0.138210000000     0.0374416  
H203     H      0.275950000000     0.792450000000     0.105340000000     0.041282   
H204     H      0.166730000000     0.792420000000     0.311220000000     0.0429378  
H205     H      0.284500000000     0.712550000000     0.107940000000     0.0475806  
H206     H      0.219340000000     0.835150000000     0.251290000000     0.0373509  
H207     H      0.196260000000     0.764580000000     0.285110000000     0.0373126  
H208     H      0.204900000000     0.851060000000     0.323960000000     0.0488386  
H209     H      0.276340000000     0.766360000000     0.211750000000     0.0481449  
H210     H      0.264020000000     0.707750000000     0.064530000000     0.0469076  
H211     H      0.195320000000     0.791980000000     0.178730000000     0.0468554  
H212     H      0.239070000000     0.739490000000     0.089130000000     0.0382615  
H213     H      0.181610000000     0.779840000000     0.358030000000     0.047993   
H214     H      0.305670000000     0.768930000000     0.075390000000     0.0367989  
H215     H      0.232110000000     0.820140000000     0.298320000000     0.0413274  
H216     H      0.218550000000     0.778750000000     0.318200000000     0.0410035  
H217     H      0.219450000000     0.774400000000     0.119950000000     0.0423649  
H218     H      0.253270000000     0.778860000000     0.072970000000     0.0428008  
H219     H      0.182250000000     0.839900000000     0.288490000000     0.0429654  
H220     H      0.307040000000     0.791320000000     0.000080000000     0.0435616  
H221     H      0.472960000000     0.695940000000     0.972450000000     0.0439088  
H222     H      0.549380000000     0.739190000000     0.929540000000     0.0373377  
H223     H      0.552830000000     0.705930000000     0.055000000000     0.0410964  
H224     H      0.415260000000     0.765530000000     0.981580000000     0.0419833  
H225     H      0.582010000000     0.713900000000     0.920170000000     0.0471373  
H226     H      0.448520000000     0.717680000000     0.068050000000     0.0373139  
H227     H      0.449770000000     0.751670000000     0.942310000000     0.0372498  
H228     H      0.405270000000     0.712400000000     0.062870000000     0.0481955  
H229     H      0.515120000000     0.689250000000     0.965860000000     0.0478336  
H230     H      0.593790000000     0.743230000000     0.930750000000     0.0472806  
H231     H      0.485700000000     0.765610000000     0.032020000000     0.0467305  
H232     H      0.561650000000     0.754900000000     0.976120000000     0.0385603  
H233     H      0.406580000000     0.747010000000     0.935610000000     0.0485692  
H234     H      0.586910000000     0.689590000000     0.025960000000     0.0361621  
H235     H      0.439750000000     0.700210000000     0.020490000000     0.0418443  
H236     H      0.440460000000     0.720500000000     0.945510000000     0.0421209  
H237     H      0.527840000000     0.759020000000     0.025150000000     0.0423863  
H238     H      0.561570000000     0.736830000000     0.047290000000     0.042717   
H239     H      0.414370000000     0.743540000000     0.062530000000     0.0419736  
H240     H      0.612870000000     0.699980000000     0.093470000000     0.0434455  
H241     H      0.285080000000     0.291010000000     0.750950000000     0.0433679  
H242     H      0.230220000000     0.221530000000     0.704880000000     0.03724    
H243     H      0.209600000000     0.289140000000     0.652630000000     0.0411653  
H244     H      0.274780000000     0.286690000000     0.917900000000     0.0440469  
H245     H      0.228350000000     0.213350000000     0.628180000000     0.0458267  
H246     H      0.257870000000     0.334890000000     0.811270000000     0.0371357  
H247     H      0.276680000000     0.263870000000     0.850350000000     0.0371552  
H248     H      0.286250000000     0.352160000000     0.866630000000     0.047614   
H249     H      0.267060000000     0.272690000000     0.685350000000     0.0476156  
H250     H      0.202580000000     0.200660000000     0.651950000000     0.0472389  
H251     H      0.220110000000     0.284190000000     0.821570000000     0.0469974  
H252     H      0.200260000000     0.231160000000     0.707900000000     0.0389193  
H253     H      0.304890000000     0.281030000000     0.905730000000     0.0479592  
H254     H      0.208700000000     0.266160000000     0.587560000000     0.0356691  
H255     H      0.287480000000     0.324650000000     0.804120000000     0.0401747  
H256     H      0.298360000000     0.283690000000     0.826810000000     0.040258   
H257     H      0.202070000000     0.266010000000     0.756150000000     0.0424203  
H258     H      0.189180000000     0.270250000000     0.681530000000     0.0431104  
H259     H      0.261590000000     0.336970000000     0.890310000000     0.0441905  
H260     H      0.168350000000     0.282140000000     0.561050000000     0.0439371  
H261     H      0.237370000000     0.288030000000     0.318250000000     0.0432462  
H262     H      0.307840000000     0.291100000000     0.208430000000     0.0373617  
H263     H      0.242510000000     0.307070000000     0.150880000000     0.0413739  
H264     H      0.238000000000     0.200330000000     0.368380000000     0.0440182  
H265     H      0.312640000000     0.329110000000     0.170410000000     0.0442868  
H266     H      0.196660000000     0.245660000000     0.285330000000     0.0370816  
H267     H      0.261590000000     0.234910000000     0.349090000000     0.0373457  
H268     H      0.175650000000     0.229720000000     0.352050000000     0.0479893  
H269     H      0.256370000000     0.313900000000     0.262840000000     0.0471352  
H270     H      0.328350000000     0.305990000000     0.141500000000     0.0498256  
H271     H      0.247760000000     0.225870000000     0.234340000000     0.0472412  
H272     H      0.299130000000     0.275740000000     0.158520000000     0.0406225  
H273     H      0.240910000000     0.219090000000     0.416480000000     0.0479967  
H274     H      0.266870000000     0.339310000000     0.125420000000     0.0341783  
H275     H      0.203080000000     0.262110000000     0.335350000000     0.040454   
H276     H      0.240840000000     0.255880000000     0.372420000000     0.0403296  
H277     H      0.266490000000     0.251640000000     0.178850000000     0.0428594  
H278     H      0.260750000000     0.283980000000     0.126990000000     0.0446093  
H279     H      0.193340000000     0.207660000000     0.324180000000     0.0439458  
H280     H      0.248020000000     0.339350000000     0.046680000000     0.043155   
H281     H      0.475690000000     0.352340000000     0.993370000000     0.0435588  
H282     H      0.548330000000     0.321860000000     0.074110000000     0.0372057  
H283     H      0.556850000000     0.319780000000     0.935500000000     0.0412067  
H284     H      0.415840000000     0.289340000000     0.040370000000     0.0426599  
H285     H      0.582440000000     0.345230000000     0.064380000000     0.04586    
H286     H      0.450260000000     0.311250000000     0.924800000000     0.03739    
H287     H      0.450660000000     0.310320000000     0.064990000000     0.0373187  
H288     H      0.407110000000     0.318760000000     0.924850000000     0.0483059  
H289     H      0.518040000000     0.358320000000     0.997330000000     0.0475907  
H290     H      0.592060000000     0.316180000000     0.082660000000     0.0475888  
H291     H      0.485660000000     0.275000000000     0.997690000000     0.0468802  
H292     H      0.560470000000     0.295580000000     0.047400000000     0.0389925  
H293     H      0.407690000000     0.317220000000     0.066750000000     0.0490633  
H294     H      0.591240000000     0.340180000000     0.953210000000     0.0358055  
H295     H      0.442020000000     0.338420000000     0.954040000000     0.0413319  
H296     H      0.442160000000     0.337820000000     0.037180000000     0.0417268  
H297     H      0.527940000000     0.280950000000     0.002100000000     0.0425298  
H298     H      0.563280000000     0.293810000000     0.968930000000     0.0430755  
H299     H      0.415310000000     0.290230000000     0.948790000000     0.042633   
H300     H      0.617740000000     0.313550000000     0.903260000000     0.0434703  
H301     H      0.317000000000     0.498020000000     0.968620000000     0.0434877  
H302     H      0.333890000000     0.578820000000     0.051950000000     0.0373937  
H303     H      0.363380000000     0.575140000000     0.924130000000     0.041197   
H304     H      0.357700000000     0.435890000000     0.065780000000     0.0432885  
H305     H      0.318510000000     0.614010000000     0.018490000000     0.0471172  
H306     H      0.367340000000     0.468980000000     0.939330000000     0.0370785  
H307     H      0.335070000000     0.472680000000     0.065240000000     0.0372536  
H308     H      0.359960000000     0.424160000000     0.936500000000     0.0481156  
H309     H      0.314120000000     0.542210000000     0.960990000000     0.0478975  
H310     H      0.341850000000     0.624110000000     0.052840000000     0.0475069  
H311     H      0.384680000000     0.505920000000     0.028620000000     0.0468341  
H312     H      0.363690000000     0.587690000000     0.042530000000     0.0385124  
H313     H      0.327440000000     0.427810000000     0.062880000000     0.0477578  
H314     H      0.344940000000     0.612740000000     0.918010000000     0.0362623  
H315     H      0.337020000000     0.460870000000     0.945000000000     0.0406884  
H316     H      0.318290000000     0.463050000000     0.018070000000     0.04056    
H317     H      0.381850000000     0.550000000000     0.021030000000     0.0422828  
H318     H      0.380680000000     0.583650000000     0.971000000000     0.0428662  
H319     H      0.380140000000     0.433400000000     0.978470000000     0.042851   
H320     H      0.380710000000     0.634270000000     0.882830000000     0.0434623  
N1       N      0.184490000000     0.914750000000     0.510800000000    -0.156859   
N2       N      0.182390000000     0.965030000000     0.513290000000    -0.110174   
N3       N      0.187240000000     0.067900000000     0.528460000000    -0.113254   
N4       N      0.181730000000     0.118330000000     0.518780000000    -0.153974   
N5       N      0.097290000000     0.836240000000     0.463390000000    -0.156925   
N6       N      0.048290000000     0.840110000000     0.466780000000    -0.111092   
N7       N      0.949450000000     0.830140000000     0.456330000000    -0.113219   
N8       N      0.900760000000     0.836430000000     0.455530000000    -0.153511   
N9       N      0.819870000000     0.921130000000     0.483950000000    -0.15704    
N10      N      0.826520000000     0.970970000000     0.496810000000    -0.110779   
N11      N      0.823310000000     0.072890000000     0.526650000000    -0.113065   
N12      N      0.829290000000     0.123420000000     0.528440000000    -0.153401   
N13      N      0.098800000000     0.207980000000     0.487380000000    -0.156949   
N14      N      0.049950000000     0.207240000000     0.491600000000    -0.110703   
N15      N      0.951200000000     0.218910000000     0.483830000000    -0.113474   
N16      N      0.902820000000     0.215110000000     0.498670000000    -0.153625   
N17      N      0.785140000000     0.803100000000     0.539750000000    -0.157144   
N18      N      0.762980000000     0.782210000000     0.612980000000    -0.110609   
N19      N      0.713420000000     0.728900000000     0.744480000000    -0.113446   
N20      N      0.693400000000     0.712660000000     0.824250000000    -0.153478   
N21      N      0.713860000000     0.738030000000     0.036350000000    -0.15736    
N22      N      0.734930000000     0.758950000000     0.110070000000    -0.110337   
N23      N      0.786370000000     0.806520000000     0.245960000000    -0.113355   
N24      N      0.804210000000     0.823380000000     0.327010000000    -0.153583   
N25      N      0.717710000000     0.301640000000     0.953560000000    -0.157313   
N26      N      0.741060000000     0.281570000000     0.881300000000    -0.110452   
N27      N      0.793510000000     0.231730000000     0.749300000000    -0.113487   
N28      N      0.812180000000     0.215540000000     0.668340000000    -0.153956   
N29      N      0.695610000000     0.323270000000     0.162690000000    -0.156637   
N30      N      0.719720000000     0.302720000000     0.233610000000    -0.110568   
N31      N      0.759370000000     0.266620000000     0.393330000000    -0.11348    
N32      N      0.786610000000     0.241900000000     0.456270000000    -0.154358   
N33      N      0.672140000000     0.418520000000     0.014880000000    -0.15731    
N34      N      0.665460000000     0.468540000000     0.999860000000    -0.111259   
N35      N      0.673130000000     0.570340000000     0.971210000000    -0.113062   
N36      N      0.668310000000     0.620860000000     0.965030000000    -0.153652   
N37      N      0.306330000000     0.713470000000     0.844110000000    -0.156708   
N38      N      0.282080000000     0.734720000000     0.774580000000    -0.110258   
N39      N      0.234670000000     0.768820000000     0.621120000000    -0.113342   
N40      N      0.209570000000     0.796220000000     0.558660000000    -0.153764   
N41      N      0.287150000000     0.737680000000     0.055420000000    -0.157027   
N42      N      0.264460000000     0.758150000000     0.128230000000    -0.110514   
N43      N      0.206920000000     0.799360000000     0.262540000000    -0.113452   
N44      N      0.189150000000     0.817210000000     0.343080000000    -0.15385    
N45      N      0.597890000000     0.717500000000     0.982890000000    -0.156562   
N46      N      0.549280000000     0.719050000000     0.989490000000    -0.11059    
N47      N      0.451570000000     0.736220000000     0.006650000000    -0.113597   
N48      N      0.402820000000     0.731020000000     0.000340000000    -0.154019   
N49      N      0.197440000000     0.232220000000     0.612020000000    -0.15732    
N50      N      0.223670000000     0.256270000000     0.677120000000    -0.110892   
N51      N      0.263950000000     0.298490000000     0.831140000000    -0.113228   
N52      N      0.293230000000     0.317730000000     0.896920000000    -0.153756   
N53      N      0.297290000000     0.319360000000     0.109480000000    -0.156835   
N54      N      0.274100000000     0.300610000000     0.185180000000    -0.111756   
N55      N      0.230370000000     0.239010000000     0.311950000000    -0.113324   
N56      N      0.207150000000     0.219040000000     0.385430000000    -0.153868   
N57      N      0.599460000000     0.324580000000     0.015070000000    -0.156741   
N58      N      0.550890000000     0.324580000000     0.004120000000    -0.110843   
N59      N      0.452760000000     0.308770000000     0.994810000000    -0.113567   
N60      N      0.404150000000     0.316080000000     0.995740000000    -0.153673   
N61      N      0.348180000000     0.626090000000     0.983220000000    -0.157105   
N62      N      0.345260000000     0.575320000000     0.985300000000    -0.110762   
N63      N      0.353640000000     0.472890000000     0.004340000000    -0.113354   
N64      N      0.347460000000     0.422290000000     0.003530000000    -0.154183   
O1       O      0.331530000000     0.325950000000     0.071320000000    -0.246194   
O2       O      0.309210000000     0.349550000000     0.935740000000    -0.252373   
O3       O      0.372010000000     0.330750000000     0.032540000000    -0.248058   
O4       O      0.333230000000     0.386830000000     0.033140000000    -0.255444   
O5       O      0.349410000000     0.385130000000     0.969290000000    -0.254321   
O6       O      0.370920000000     0.330160000000     0.961630000000    -0.251286   
O7       O      0.300120000000     0.340360000000     0.043500000000    -0.250863   
O8       O      0.319470000000     0.313460000000     0.953810000000    -0.25404    
O9       O      0.302790000000     0.703520000000     0.023190000000    -0.249082   
O10      O      0.336240000000     0.716630000000     0.894630000000    -0.246724   
O11      O      0.348710000000     0.661980000000     0.944050000000    -0.255439   
O12      O      0.370280000000     0.708730000000     0.018560000000    -0.25479    
O13      O      0.371060000000     0.725880000000     0.954920000000    -0.247828   
O14      O      0.335350000000     0.662780000000     0.010260000000    -0.248944   
O15      O      0.318480000000     0.737730000000     0.007430000000    -0.255683   
O16      O      0.304790000000     0.698810000000     0.915380000000    -0.25449    
O17      O      0.636380000000     0.333510000000     0.989230000000    -0.251079   
O18      O      0.669680000000     0.384570000000     0.059140000000    -0.251281   
O19      O      0.683110000000     0.306400000000     0.991380000000    -0.253897   
O20      O      0.671700000000     0.317410000000     0.102430000000    -0.249198   
O21      O      0.696200000000     0.346780000000     0.099710000000    -0.249715   
O22      O      0.707520000000     0.335800000000     0.993040000000    -0.253123   
O23      O      0.630970000000     0.333480000000     0.059410000000    -0.250366   
O24      O      0.672230000000     0.379190000000     0.989130000000    -0.252666   
O25      O      0.665720000000     0.715650000000     0.879150000000    -0.246182   
O26      O      0.680850000000     0.734420000000     0.993420000000    -0.256634   
O27      O      0.662250000000     0.655970000000     0.925630000000    -0.255032   
O28      O      0.630080000000     0.716450000000     0.937270000000    -0.246535   
O29      O      0.632760000000     0.698940000000     0.000350000000    -0.253257   
O30      O      0.672020000000     0.659210000000     0.993890000000    -0.249685   
O31      O      0.696960000000     0.695680000000     0.893360000000    -0.253034   
O32      O      0.702760000000     0.703190000000     0.000020000000    -0.250827   
O33      O      0.840720000000     0.158760000000     0.562540000000    -0.253783   
O34      O      0.871110000000     0.219450000000     0.544640000000    -0.246731   
O35      O      0.807490000000     0.196240000000     0.601570000000    -0.254062   
O36      O      0.796720000000     0.207080000000     0.493310000000    -0.251057   
O37      O      0.820900000000     0.236630000000     0.494480000000    -0.257147   
O38      O      0.836340000000     0.220680000000     0.608270000000    -0.247971   
O39      O      0.823140000000     0.161530000000     0.499980000000    -0.247799   
O40      O      0.867590000000     0.195880000000     0.488550000000    -0.254378   
O41      O      0.864620000000     0.835160000000     0.488680000000    -0.248827   
O42      O      0.818510000000     0.888530000000     0.436360000000    -0.248483   
O43      O      0.819420000000     0.811280000000     0.502800000000    -0.25071    
O44      O      0.826220000000     0.818460000000     0.389940000000    -0.252609   
O45      O      0.803510000000     0.849340000000     0.386500000000    -0.248109   
O46      O      0.791220000000     0.836390000000     0.495060000000    -0.254756   
O47      O      0.866650000000     0.848280000000     0.421950000000    -0.253945   
O48      O      0.828910000000     0.881820000000     0.503300000000    -0.254652   
O49      O      0.132270000000     0.830270000000     0.499330000000    -0.246459   
O50      O      0.164840000000     0.878450000000     0.517210000000    -0.256071   
O51      O      0.175540000000     0.810970000000     0.413740000000    -0.255365   
O52      O      0.175210000000     0.810460000000     0.529260000000    -0.248392   
O53      O      0.207150000000     0.826400000000     0.506430000000    -0.255804   
O54      O      0.186410000000     0.846950000000     0.396190000000    -0.247664   
O55      O      0.133100000000     0.848740000000     0.436950000000    -0.254292   
O56      O      0.191680000000     0.881040000000     0.467980000000    -0.248703   
O57      O      0.189870000000     0.154530000000     0.484360000000    -0.253548   
O58      O      0.134390000000     0.212830000000     0.521740000000    -0.251691   
O59      O      0.206540000000     0.205000000000     0.457060000000    -0.252221   
O60      O      0.189740000000     0.197170000000     0.573350000000    -0.254158   
O61      O      0.181030000000     0.230910000000     0.542370000000    -0.250881   
O62      O      0.173750000000     0.209830000000     0.424120000000    -0.252582   
O63      O      0.162840000000     0.154230000000     0.533510000000    -0.252607   
O64      O      0.132760000000     0.188880000000     0.465940000000    -0.250489   
S1       S      0.172500000000     0.909820000000     0.596780000000    -0.0318014  
S2       S      0.097890000000     0.836100000000     0.373230000000    -0.0284056  
S3       S      0.785340000000     0.928060000000     0.423800000000    -0.0269352  
S4       S      0.101560000000     0.253070000000     0.523230000000    -0.0287453  
S5       S      0.744230000000     0.815460000000     0.500770000000    -0.030334   
S6       S      0.753000000000     0.713950000000     0.012030000000    -0.0298166  
S7       S      0.757100000000     0.321020000000     0.988130000000    -0.0305723  
S8       S      0.707800000000     0.369120000000     0.185230000000    -0.0303172  
S9       S      0.692510000000     0.426440000000     0.095180000000    -0.028171   
S10      S      0.346920000000     0.711430000000     0.798530000000    -0.0300582  
S11      S      0.286480000000     0.779610000000     0.008780000000    -0.0302678  
S12      S      0.603980000000     0.719650000000     0.071690000000    -0.0289344  
S13      S      0.168060000000     0.270460000000     0.600970000000    -0.0297785  
S14      S      0.257080000000     0.317580000000     0.059880000000    -0.0271403  
S15      S      0.606970000000     0.301380000000     0.937040000000    -0.0264085  
S16      S      0.384260000000     0.625740000000     0.924780000000    -0.0306813  


