data_structure

_audit_creation_method RASPA-1.0
_audit_creation_date 2023-6-5
_audit_author_name 'Poobodin Mano'

_cell_length_a    55.9902
_cell_length_b    57.9795
_cell_length_c    28.0485
_cell_angle_alpha 90.0351
_cell_angle_beta  89.9121
_cell_angle_gamma 89.9999
_cell_volume      91053.3

_symmetry_cell_setting          triclinic
_symmetry_space_group_name_Hall 'P 1'
_symmetry_space_group_name_H-M  'P 1'
_symmetry_Int_Tables_number     1

_symmetry_equiv_pos_as_xyz 'x,y,z'

loop_
_atom_site_label
_atom_site_type_symbol
_atom_site_fract_x
_atom_site_fract_y
_atom_site_fract_z
_atom_site_charge
C1       C      0.310780000000     0.294870000000     0.085210000000     0.342826   
C2       C      0.387620000000     0.330420000000     0.040170000000     0.343273   
C3       C      0.326370000000     0.313640000000     0.929190000000     0.341217   
C4       C      0.321950000000     0.374470000000     0.046720000000     0.3381     
C5       C      0.330030000000     0.610310000000     0.044550000000     0.339274   
C6       C      0.322810000000     0.684130000000     0.090990000000     0.337732   
C7       C      0.399250000000     0.649500000000     0.028100000000     0.338615   
C8       C      0.339140000000     0.677610000000     0.932150000000     0.338401   
C9       C      0.630560000000     0.311690000000     0.009790000000     0.338891   
C10      C      0.710940000000     0.307950000000     0.975030000000     0.339805   
C11      C      0.668910000000     0.380310000000     0.027270000000     0.341213   
C12      C      0.694990000000     0.323940000000     0.130200000000     0.341673   
C13      C      0.695170000000     0.618660000000     0.029230000000     0.337834   
C14      C      0.720730000000     0.696990000000     0.966390000000     0.339902   
C15      C      0.642810000000     0.677570000000     0.002790000000     0.340756   
C16      C      0.710370000000     0.680270000000     0.121470000000     0.338458   
C17      C      0.820340000000     0.195240000000     0.596790000000     0.336899   
C18      C      0.845170000000     0.121080000000     0.518010000000     0.337164   
C19      C      0.814840000000     0.184170000000     0.436070000000     0.338626   
C20      C      0.891480000000     0.186070000000     0.531110000000     0.342275   
C21      C      0.900850000000     0.846850000000     0.519950000000     0.341977   
C22      C      0.843390000000     0.820550000000     0.622090000000     0.338012   
C23      C      0.830230000000     0.884700000000     0.504010000000     0.340965   
C24      C      0.824470000000     0.807270000000     0.468840000000     0.338705   
C25      C      0.201610000000     0.812460000000     0.424160000000     0.341955   
C26      C      0.135880000000     0.796230000000     0.543150000000     0.338349   
C27      C      0.216610000000     0.791380000000     0.577120000000     0.33716    
C28      C      0.172370000000     0.864120000000     0.530870000000     0.339417   
C29      C      0.189040000000     0.102970000000     0.536380000000     0.337651   
C30      C      0.215270000000     0.177190000000     0.471790000000     0.338986   
C31      C      0.136210000000     0.158700000000     0.534190000000     0.338606   
C32      C      0.206500000000     0.170730000000     0.629510000000     0.338533   
C33      C      0.168600000000     0.924050000000     0.581500000000    -0.0293039  
C34      C      0.182720000000     0.042290000000     0.490430000000    -0.0280172  
C35      C      0.191220000000     0.066580000000     0.580230000000    -0.0110096  
C36      C      0.177540000000     0.068170000000     0.492610000000    -0.0109262  
C37      C      0.156560000000     0.996110000000     0.550060000000    -0.0538071  
C38      C      0.195840000000     0.969720000000     0.521260000000    -0.0524676  
C39      C      0.177660000000     0.007160000000     0.536110000000     0.0626599  
C40      C      0.195660000000     0.040860000000     0.572350000000    -0.027904   
C41      C      0.174710000000     0.958660000000     0.535220000000     0.061253   
C42      C      0.157150000000     0.925160000000     0.497400000000    -0.0572097  
C43      C      0.155020000000     0.972090000000     0.549730000000    -0.0554056  
C44      C      0.151560000000     0.898910000000     0.501960000000     0.0777063  
C45      C      0.175030000000     0.898540000000     0.580930000000    -0.00781791 
C46      C      0.197410000000     0.993800000000     0.521740000000    -0.0561537  
C47      C      0.125240000000     0.894770000000     0.515080000000    -0.187018   
C48      C      0.959120000000     0.827380000000     0.484950000000    -0.0304737  
C49      C      0.078570000000     0.808140000000     0.585660000000    -0.0286164  
C50      C      0.099210000000     0.775630000000     0.517920000000    -0.0107369  
C51      C      0.101130000000     0.794450000000     0.597860000000    -0.0108897  
C52      C      0.020040000000     0.795990000000     0.556390000000    -0.0533238  
C53      C      0.018370000000     0.839150000000     0.512000000000    -0.0535285  
C54      C      0.041340000000     0.806680000000     0.542280000000     0.0620719  
C55      C      0.076630000000     0.789540000000     0.506880000000    -0.0288747  
C56      C      0.997080000000     0.828470000000     0.526110000000     0.0617857  
C57      C      0.962460000000     0.846560000000     0.562190000000    -0.0592582  
C58      C      0.998050000000     0.806750000000     0.548480000000    -0.0556399  
C59      C      0.940730000000     0.861940000000     0.551050000000     0.0808405  
C60      C      0.937430000000     0.842140000000     0.472000000000    -0.0106166  
C61      C      0.040350000000     0.828430000000     0.519980000000    -0.0559382  
C62      C      0.928790000000     0.869740000000     0.597830000000    -0.191434   
C63      C      0.838480000000     0.941450000000     0.458720000000    -0.0305141  
C64      C      0.827870000000     0.060910000000     0.543700000000    -0.0284354  
C65      C      0.862070000000     0.085420000000     0.483730000000    -0.0110193  
C66      C      0.837330000000     0.084410000000     0.559610000000    -0.0111712  
C67      C      0.853850000000     0.007750000000     0.525660000000    -0.0534038  
C68      C      0.813550000000     0.996010000000     0.472110000000    -0.0532722  
C69      C      0.839730000000     0.025240000000     0.505950000000     0.0621077  
C70      C      0.851610000000     0.061790000000     0.471140000000    -0.0284925  
C71      C      0.827590000000     0.978520000000     0.492110000000     0.0616741  
C72      C      0.813790000000     0.943610000000     0.530690000000    -0.0598354  
C73      C      0.847900000000     0.984570000000     0.518920000000    -0.0556355  
C74      C      0.803510000000     0.919450000000     0.520810000000     0.081768   
C75      C      0.828850000000     0.917320000000     0.447690000000    -0.0107016  
C76      C      0.819500000000     0.019200000000     0.478900000000    -0.0559155  
C77      C      0.794720000000     0.908370000000     0.567490000000    -0.192747   
C78      C      0.951800000000     0.193930000000     0.490240000000    -0.0304327  
C79      C      0.072810000000     0.164990000000     0.570890000000    -0.0282914  
C80      C      0.101100000000     0.165760000000     0.483460000000    -0.0109182  
C81      C      0.096540000000     0.152010000000     0.569240000000    -0.0108891  
C82      C      0.019300000000     0.157970000000     0.513260000000    -0.0532234  
C83      C      0.008010000000     0.203080000000     0.540550000000    -0.0533042  
C84      C      0.037680000000     0.173430000000     0.524320000000     0.0623208  
C85      C      0.077040000000     0.177990000000     0.489160000000    -0.028351   
C86      C      0.989610000000     0.187540000000     0.529960000000     0.0618999  
C87      C      0.952850000000     0.182680000000     0.574120000000    -0.0594072  
C88      C      0.995440000000     0.164880000000     0.516060000000    -0.0555677  
C89      C      0.928110000000     0.193460000000     0.582840000000     0.0812107  
C90      C      0.927080000000     0.204760000000     0.496780000000    -0.0107048  
C91      C      0.031890000000     0.196140000000     0.537860000000    -0.0558787  
C92      C      0.915930000000     0.181690000000     0.625640000000    -0.191804   
C93      C      0.768850000000     0.713560000000     0.879630000000    -0.0294605  
C94      C      0.810480000000     0.810010000000     0.731110000000    -0.0288217  
C95      C      0.848780000000     0.787800000000     0.677620000000    -0.0108919  
C96      C      0.829310000000     0.824600000000     0.705430000000    -0.0107974  
C97      C      0.811740000000     0.769250000000     0.821700000000    -0.0537864  
C98      C      0.767470000000     0.753900000000     0.788210000000    -0.052822   
C99      C      0.804780000000     0.774510000000     0.775030000000     0.0621701  
C100     C      0.829330000000     0.774320000000     0.703940000000    -0.0287174  
C101     C      0.774420000000     0.748660000000     0.834910000000     0.0611447  
C102     C      0.750480000000     0.748670000000     0.906580000000    -0.0570379  
C103     C      0.796770000000     0.756440000000     0.851500000000    -0.0554707  
C104     C      0.730200000000     0.735970000000     0.933230000000     0.0789013  
C105     C      0.749540000000     0.698400000000     0.901600000000    -0.0106879  
C106     C      0.782470000000     0.766680000000     0.758380000000    -0.0560213  
C107     C      0.726690000000     0.747790000000     0.982240000000    -0.189595   
C108     C      0.752130000000     0.688700000000     0.224750000000    -0.0295451  
C109     C      0.775500000000     0.781050000000     0.398000000000    -0.0285551  
C110     C      0.825590000000     0.772020000000     0.419890000000    -0.011174   
C111     C      0.786080000000     0.790320000000     0.444460000000    -0.0107261  
C112     C      0.765860000000     0.725940000000     0.355040000000    -0.0539404  
C113     C      0.762230000000     0.745170000000     0.263890000000    -0.0524933  
C114     C      0.775730000000     0.747700000000     0.346160000000     0.0624298  
C115     C      0.813110000000     0.763590000000     0.374640000000    -0.0282027  
C116     C      0.752490000000     0.723320000000     0.272710000000     0.0611004  
C117     C      0.714960000000     0.709090000000     0.241390000000    -0.0573374  
C118     C      0.754300000000     0.713810000000     0.318770000000    -0.0554131  
C119     C      0.702710000000     0.692970000000     0.204180000000     0.0781425  
C120     C      0.744570000000     0.680620000000     0.175390000000    -0.00763764 
C121     C      0.773770000000     0.757330000000     0.300240000000    -0.0562014  
C122     C      0.691580000000     0.671760000000     0.228380000000    -0.188052   
C123     C      0.746610000000     0.261870000000     0.913150000000    -0.029474   
C124     C      0.798050000000     0.243120000000     0.674800000000    -0.0283481  
C125     C      0.802260000000     0.192890000000     0.676310000000    -0.0110924  
C126     C      0.815830000000     0.231520000000     0.640990000000    -0.0108634  
C127     C      0.795390000000     0.246070000000     0.798360000000    -0.0537299  
C128     C      0.747720000000     0.259720000000     0.788770000000    -0.0525315  
C129     C      0.783220000000     0.241400000000     0.755890000000     0.0623482  
C130     C      0.785210000000     0.206690000000     0.707960000000    -0.0281449  
C131     C      0.759890000000     0.264300000000     0.831350000000     0.0613447  
C132     C      0.756780000000     0.299270000000     0.878350000000    -0.0573925  
C133     C      0.783900000000     0.257410000000     0.835840000000    -0.0555891  
C134     C      0.747320000000     0.310340000000     0.925410000000     0.0782838  
C135     C      0.727340000000     0.271530000000     0.945860000000    -0.00743887 
C136     C      0.759230000000     0.248330000000     0.751230000000    -0.0560058  
C137     C      0.767570000000     0.313780000000     0.961660000000    -0.187999   
C138     C      0.740940000000     0.301580000000     0.202460000000    -0.0306901  
C139     C      0.763930000000     0.210010000000     0.377780000000    -0.0287515  
C140     C      0.813570000000     0.200040000000     0.354190000000    -0.010816   
C141     C      0.775730000000     0.187770000000     0.395470000000    -0.0108266  
C142     C      0.752580000000     0.234090000000     0.266130000000    -0.0534353  
C143     C      0.749330000000     0.276700000000     0.312500000000    -0.0533004  
C144     C      0.762660000000     0.236740000000     0.311480000000     0.0621695  
C145     C      0.800770000000     0.221960000000     0.337960000000    -0.0285641  
C146     C      0.739320000000     0.274070000000     0.267100000000     0.0616822  
C147     C      0.702320000000     0.289590000000     0.235510000000    -0.0601333  
C148     C      0.741020000000     0.252550000000     0.243960000000    -0.0556946  
C149     C      0.690600000000     0.311940000000     0.217340000000     0.0818841  
C150     C      0.729870000000     0.323940000000     0.183750000000    -0.0102488  
C151     C      0.760950000000     0.258260000000     0.334600000000    -0.0559015  
C152     C      0.663550000000     0.308490000000     0.210810000000    -0.192709   
C153     C      0.681890000000     0.438420000000     0.983670000000    -0.0298958  
C154     C      0.680880000000     0.558920000000     0.063840000000    -0.0283465  
C155     C      0.708670000000     0.582620000000     0.990750000000    -0.0112932  
C156     C      0.691860000000     0.582460000000     0.074790000000    -0.0111184  
C157     C      0.704030000000     0.505370000000     0.038700000000    -0.0535     
C158     C      0.659230000000     0.493660000000     0.001960000000    -0.0535718  
C159     C      0.688520000000     0.522840000000     0.023640000000     0.0619619  
C160     C      0.697080000000     0.558960000000     0.983390000000    -0.028298   
C161     C      0.674680000000     0.476200000000     0.017350000000     0.0614644  
C162     C      0.664270000000     0.442090000000     0.062460000000    -0.0582423  
C163     C      0.697240000000     0.482220000000     0.035690000000    -0.0556743  
C164     C      0.652210000000     0.418240000000     0.058600000000     0.0794551  
C165     C      0.670430000000     0.414760000000     0.976550000000    -0.0111241  
C166     C      0.666010000000     0.516820000000     0.005040000000    -0.0560572  
C167     C      0.649690000000     0.407900000000     0.109010000000    -0.190049   
C168     C      0.320140000000     0.687590000000     0.805320000000    -0.0290714  
C169     C      0.258820000000     0.780470000000     0.675940000000    -0.0284207  
C170     C      0.236730000000     0.754920000000     0.597950000000    -0.0110004  
C171     C      0.251420000000     0.793270000000     0.630640000000    -0.0110802  
C172     C      0.300390000000     0.738050000000     0.699230000000    -0.0537319  
C173     C      0.275660000000     0.728910000000     0.783850000000    -0.0523117  
C174     C      0.276500000000     0.744860000000     0.703610000000     0.0623083  
C175     C      0.244860000000     0.743820000000     0.644670000000    -0.0285044  
C176     C      0.299540000000     0.722010000000     0.779380000000     0.0613575  
C177     C      0.329230000000     0.724730000000     0.841860000000    -0.0570671  
C178     C      0.311890000000     0.726750000000     0.736700000000    -0.0555589  
C179     C      0.344410000000     0.711320000000     0.879330000000     0.0779239  
C180     C      0.324530000000     0.673690000000     0.850510000000    -0.0081565  
C181     C      0.264170000000     0.740270000000     0.746370000000    -0.0558164  
C182     C      0.370770000000     0.710060000000     0.864210000000    -0.187709   
C183     C      0.211310000000     0.780310000000     0.318220000000    -0.030655   
C184     C      0.309750000000     0.731340000000     0.177220000000    -0.0282336  
C185     C      0.285660000000     0.691590000000     0.135240000000    -0.0107451  
C186     C      0.324730000000     0.711260000000     0.158310000000    -0.0110405  
C187     C      0.268870000000     0.736060000000     0.269210000000    -0.0531746  
C188     C      0.252400000000     0.776500000000     0.226030000000    -0.0533356  
C189     C      0.273510000000     0.739910000000     0.220800000000     0.0621876  
C190     C      0.272640000000     0.712640000000     0.155350000000    -0.0285107  
C191     C      0.247660000000     0.772600000000     0.274410000000     0.0618283  
C192     C      0.248400000000     0.800280000000     0.339140000000    -0.0596758  
C193     C      0.256090000000     0.752230000000     0.295940000000    -0.0555704  
C194     C      0.234180000000     0.820080000000     0.362330000000     0.0814757  
C195     C      0.196530000000     0.799580000000     0.341000000000    -0.0103494  
C196     C      0.265240000000     0.760340000000     0.199300000000    -0.0559063  
C197     C      0.249570000000     0.832350000000     0.400030000000    -0.192198   
C198     C      0.581210000000     0.685840000000     0.033850000000    -0.030282   
C199     C      0.460100000000     0.643880000000     0.982130000000    -0.0285417  
C200     C      0.436950000000     0.654700000000     0.072590000000    -0.011098   
C201     C      0.436280000000     0.632520000000     0.995070000000    -0.0110256  
C202     C      0.516890000000     0.643850000000     0.032380000000    -0.0534217  
C203     C      0.525600000000     0.684430000000     0.981350000000    -0.0535535  
C204     C      0.497610000000     0.656890000000     0.015540000000     0.0619167  
C205     C      0.460680000000     0.665350000000     0.056880000000    -0.028466   
C206     C      0.544880000000     0.671420000000     0.998300000000     0.0616285  
C207     C      0.582920000000     0.663350000000     0.960300000000    -0.0590432  
C208     C      0.540350000000     0.651000000000     0.023950000000    -0.0557541  
C209     C      0.607070000000     0.674320000000     0.946720000000     0.0805688  
C210     C      0.605080000000     0.697340000000     0.022150000000    -0.0109292  
C211     C      0.502140000000     0.677300000000     0.989860000000    -0.055852   
C212     C      0.621120000000     0.657820000000     0.914050000000    -0.191484   
C213     C      0.283960000000     0.294540000000     0.845380000000    -0.0304471  
C214     C      0.254190000000     0.191860000000     0.704170000000    -0.0286883  
C215     C      0.202390000000     0.196330000000     0.699750000000    -0.0107476  
C216     C      0.238730000000     0.171230000000     0.689870000000    -0.010892   
C217     C      0.259240000000     0.226260000000     0.804810000000    -0.0534242  
C218     C      0.280060000000     0.259660000000     0.746060000000    -0.0532676  
C219     C      0.255470000000     0.225360000000     0.755500000000     0.0622835  
C220     C      0.218870000000     0.216250000000     0.713750000000    -0.0286694  
C221     C      0.283780000000     0.260590000000     0.795370000000     0.0618477  
C222     C      0.319890000000     0.270560000000     0.838360000000    -0.0598126  
C223     C      0.273250000000     0.243700000000     0.824740000000    -0.0555876  
C224     C      0.335700000000     0.291070000000     0.853240000000     0.0813697  
C225     C      0.299110000000     0.315260000000     0.860350000000    -0.0106207  
C226     C      0.266040000000     0.242230000000     0.726130000000    -0.0558131  
C227     C      0.359310000000     0.282400000000     0.874770000000    -0.191963   
C228     C      0.274260000000     0.277620000000     0.187070000000    -0.0298155  
C229     C      0.251850000000     0.186810000000     0.364220000000    -0.0285689  
C230     C      0.226190000000     0.214300000000     0.434760000000    -0.0109277  
C231     C      0.249120000000     0.177790000000     0.415240000000    -0.0108744  
C232     C      0.278800000000     0.235480000000     0.314570000000    -0.0535828  
C233     C      0.250360000000     0.227940000000     0.234180000000    -0.0530347  
C234     C      0.258380000000     0.221660000000     0.318420000000     0.0622669  
C235     C      0.229720000000     0.221760000000     0.382970000000    -0.0283833  
C236     C      0.270730000000     0.241850000000     0.230380000000     0.0614331  
C237     C      0.299460000000     0.245090000000     0.165950000000    -0.0579685  
C238     C      0.284980000000     0.245550000000     0.271010000000    -0.0555811  
C239     C      0.302720000000     0.254040000000     0.114530000000     0.079107   
C240     C      0.276190000000     0.287550000000     0.136820000000    -0.0111792  
C241     C      0.244150000000     0.217920000000     0.277780000000    -0.0560307  
C242     C      0.327210000000     0.246000000000     0.095540000000    -0.18976    
C243     C      0.449350000000     0.336350000000     0.000100000000    -0.0300422  
C244     C      0.571720000000     0.295960000000     0.043470000000    -0.0288505  
C245     C      0.595390000000     0.310900000000     0.956220000000    -0.0107984  
C246     C      0.596260000000     0.286400000000     0.029680000000    -0.0106767  
C247     C      0.515100000000     0.296500000000     0.993580000000    -0.0536751  
C248     C      0.505710000000     0.335280000000     0.049940000000    -0.0533769  
C249     C      0.534160000000     0.309500000000     0.011570000000     0.0619609  
C250     C      0.570880000000     0.319990000000     0.971480000000    -0.0287041  
C251     C      0.486660000000     0.322300000000     0.031960000000     0.0614369  
C252     C      0.449410000000     0.312090000000     0.070660000000    -0.058122   
C253     C      0.491520000000     0.302790000000     0.003580000000    -0.0559015  
C254     C      0.425330000000     0.322080000000     0.087820000000     0.079521   
C255     C      0.425700000000     0.347410000000     0.014690000000    -0.0110365  
C256     C      0.529280000000     0.329010000000     0.039910000000    -0.0560888  
C257     C      0.412060000000     0.303560000000     0.117080000000    -0.190197   
C258     C      0.298000000000     0.553480000000     0.035600000000    -0.0292814  
C259     C      0.327380000000     0.433110000000     0.094150000000    -0.0286482  
C260     C      0.298160000000     0.408690000000     0.024520000000    -0.0110626  
C261     C      0.321180000000     0.407680000000     0.102020000000    -0.0107719  
C262     C      0.294150000000     0.483270000000     0.086400000000    -0.053763   
C263     C      0.333040000000     0.503340000000     0.039390000000    -0.0523446  
C264     C      0.311300000000     0.469120000000     0.064770000000     0.0624395  
C265     C      0.305230000000     0.434050000000     0.019490000000    -0.0285977  
C266     C      0.315810000000     0.517500000000     0.060760000000     0.0615153  
C267     C      0.324330000000     0.552490000000     0.104630000000    -0.0570877  
C268     C      0.296340000000     0.507250000000     0.084570000000    -0.0554081  
C269     C      0.324140000000     0.579380000000     0.103890000000     0.0782306  
C270     C      0.305410000000     0.577600000000     0.019990000000    -0.00795264 
C271     C      0.330880000000     0.479340000000     0.041310000000    -0.0558318  
C272     C      0.304850000000     0.589060000000     0.137390000000    -0.187963   
Cd1      Cd     0.336500000000     0.327770000000     0.026140000000     0.504202   
Cd2      Cd     0.348070000000     0.655740000000     0.023000000000     0.504771   
Cd3      Cd     0.676390000000     0.330960000000     0.034970000000     0.504198   
Cd4      Cd     0.692000000000     0.668390000000     0.028680000000     0.504419   
Cd5      Cd     0.842540000000     0.170990000000     0.518660000000     0.505005   
Cd6      Cd     0.849760000000     0.839910000000     0.528090000000     0.504894   
Cd7      Cd     0.181930000000     0.815550000000     0.519500000000     0.505091   
Cd8      Cd     0.187230000000     0.152630000000     0.541860000000     0.506011   
H1       H      0.213940000000     0.001970000000     0.511000000000     0.0426094  
H2       H      0.179590000000     0.932700000000     0.609350000000     0.0365712  
H3       H      0.165610000000     0.928170000000     0.462030000000     0.0460511  
H4       H      0.174860000000     0.068670000000     0.602380000000     0.0454946  
H5       H      0.194740000000     0.896690000000     0.584300000000     0.0485654  
H6       H      0.170680000000     0.034400000000     0.463390000000     0.0362928  
H7       H      0.193450000000     0.031840000000     0.607120000000     0.0365614  
H8       H      0.184310000000     0.076370000000     0.459390000000     0.0463789  
H9       H      0.211130000000     0.959620000000     0.510070000000     0.0472232  
H10      H      0.166960000000     0.889910000000     0.612500000000     0.0408151  
H11      H      0.141280000000     0.006190000000     0.561310000000     0.0463777  
H12      H      0.149460000000     0.926280000000     0.591250000000     0.0346291  
H13      H      0.206360000000     0.073850000000     0.601030000000     0.0468091  
H14      H      0.154120000000     0.891220000000     0.465900000000     0.0271406  
H15      H      0.201490000000     0.039490000000     0.478530000000     0.0383245  
H16      H      0.214370000000     0.038130000000     0.560020000000     0.0386324  
H17      H      0.138500000000     0.963980000000     0.560700000000     0.040451   
H18      H      0.140240000000     0.935290000000     0.497180000000     0.0402444  
H19      H      0.157850000000     0.070740000000     0.493240000000     0.0445867  
H20      H      0.120960000000     0.902400000000     0.550370000000     0.0687558  
H21      H      0.113350000000     0.902530000000     0.487770000000     0.063686   
H22      H      0.121440000000     0.875980000000     0.516510000000     0.0795256  
H23      H      0.056520000000     0.837120000000     0.508850000000     0.0422894  
H24      H      0.968950000000     0.823100000000     0.451580000000     0.0373917  
H25      H      0.974990000000     0.856220000000     0.585670000000     0.0421136  
H26      H      0.093750000000     0.758730000000     0.533150000000     0.0404885  
H27      H      0.943780000000     0.857480000000     0.451830000000     0.0399732  
H28      H      0.068350000000     0.811190000000     0.619140000000     0.0361008  
H29      H      0.065000000000     0.779070000000     0.483110000000     0.0373583  
H30      H      0.112480000000     0.804750000000     0.622410000000     0.0466941  
H31      H      0.017900000000     0.855880000000     0.494880000000     0.0451294  
H32      H      0.925760000000     0.831990000000     0.447810000000     0.0494034  
H33      H      0.020520000000     0.779300000000     0.573680000000     0.0461611  
H34      H      0.952870000000     0.811000000000     0.501500000000     0.042649   
H35      H      0.109160000000     0.772280000000     0.484310000000     0.0485492  
H36      H      0.947850000000     0.877790000000     0.533720000000     0.018521   
H37      H      0.083920000000     0.825160000000     0.570710000000     0.0410074  
H38      H      0.081850000000     0.805520000000     0.487480000000     0.0429708  
H39      H      0.981860000000     0.798160000000     0.559870000000     0.0430641  
H40      H      0.956420000000     0.830840000000     0.581620000000     0.0471525  
H41      H      0.095720000000     0.778420000000     0.616760000000     0.0401539  
H42      H      0.921200000000     0.854820000000     0.617540000000     0.0851016  
H43      H      0.942190000000     0.878140000000     0.621300000000     0.0639465  
H44      H      0.914840000000     0.882900000000     0.590650000000     0.0858145  
H45      H      0.808230000000     0.032370000000     0.463430000000     0.0426713  
H46      H      0.842650000000     0.950230000000     0.424430000000     0.0369483  
H47      H      0.800000000000     0.954230000000     0.549150000000     0.0427129  
H48      H      0.880110000000     0.082850000000     0.499390000000     0.041684   
H49      H      0.813190000000     0.919110000000     0.423600000000     0.039662   
H50      H      0.823520000000     0.050640000000     0.576100000000     0.0363401  
H51      H      0.865000000000     0.052170000000     0.449490000000     0.0364041  
H52      H      0.822710000000     0.093850000000     0.578100000000     0.0482324  
H53      H      0.797840000000     0.991620000000     0.451530000000     0.0456985  
H54      H      0.842810000000     0.907510000000     0.428080000000     0.0478008  
H55      H      0.869420000000     0.012140000000     0.546660000000     0.0458839  
H56      H      0.855330000000     0.939780000000     0.479480000000     0.0415765  
H57      H      0.864280000000     0.095550000000     0.450360000000     0.0467354  
H58      H      0.787370000000     0.922040000000     0.498250000000     0.0188046  
H59      H      0.811120000000     0.063390000000     0.522970000000     0.0403764  
H60      H      0.835310000000     0.064250000000     0.449020000000     0.0399898  
H61      H      0.859010000000     0.971410000000     0.534890000000     0.0424159  
H62      H      0.829560000000     0.942060000000     0.554650000000     0.0473332  
H63      H      0.851910000000     0.081640000000     0.585870000000     0.0421013  
H64      H      0.809610000000     0.906150000000     0.593230000000     0.0872167  
H65      H      0.781130000000     0.919660000000     0.584530000000     0.0649795  
H66      H      0.785820000000     0.891620000000     0.560160000000     0.0883159  
H67      H      0.045760000000     0.208380000000     0.546900000000     0.0426831  
H68      H      0.961500000000     0.203660000000     0.462020000000     0.0373593  
H69      H      0.963600000000     0.184000000000     0.607410000000     0.0425625  
H70      H      0.098220000000     0.149360000000     0.463710000000     0.0433638  
H71      H      0.929420000000     0.223430000000     0.504620000000     0.0406057  
H72      H      0.060810000000     0.156030000000     0.596600000000     0.0362937  
H73      H      0.068200000000     0.178700000000     0.453670000000     0.0367839  
H74      H      0.105410000000     0.153760000000     0.604510000000     0.047727   
H75      H      0.003790000000     0.220520000000     0.551540000000     0.0458771  
H76      H      0.917220000000     0.203310000000     0.462550000000     0.0493385  
H77      H      0.023500000000     0.140410000000     0.503050000000     0.0464066  
H78      H      0.949620000000     0.175770000000     0.478050000000     0.0420779  
H79      H      0.113040000000     0.176770000000     0.461380000000     0.047509   
H80      H      0.931300000000     0.211710000000     0.593520000000     0.0191176  
H81      H      0.075930000000     0.182840000000     0.584210000000     0.0401017  
H82      H      0.080160000000     0.196010000000     0.501450000000     0.0398508  
H83      H      0.981570000000     0.152480000000     0.508000000000     0.0428617  
H84      H      0.950720000000     0.164060000000     0.565180000000     0.0472071  
H85      H      0.092830000000     0.133370000000     0.563490000000     0.0426905  
H86      H      0.912370000000     0.163190000000     0.618180000000     0.085407   
H87      H      0.927740000000     0.182620000000     0.657380000000     0.064525   
H88      H      0.899200000000     0.190860000000     0.635370000000     0.0866934  
H89      H      0.776690000000     0.770450000000     0.722420000000     0.0429358  
H90      H      0.776480000000     0.704310000000     0.848310000000     0.0367292  
H91      H      0.743680000000     0.765860000000     0.895160000000     0.0420315  
H92      H      0.864640000000     0.789160000000     0.701260000000     0.0401854  
H93      H      0.737800000000     0.691900000000     0.872590000000     0.0442153  
H94      H      0.804310000000     0.819630000000     0.763200000000     0.0359178  
H95      H      0.837010000000     0.757610000000     0.715970000000     0.0364765  
H96      H      0.820860000000     0.840810000000     0.692740000000     0.0462764  
H97      H      0.750360000000     0.748040000000     0.774950000000     0.0463885  
H98      H      0.758380000000     0.683090000000     0.917720000000     0.0474774  
H99      H      0.828860000000     0.775110000000     0.834940000000     0.0456309  
H100     H      0.783460000000     0.716190000000     0.906000000000     0.0380452  
H101     H      0.854160000000     0.777990000000     0.645290000000     0.0468931  
H102     H      0.713520000000     0.738550000000     0.912380000000     0.0229701  
H103     H      0.794910000000     0.807510000000     0.706990000000     0.040918   
H104     H      0.814430000000     0.770610000000     0.678820000000     0.0412159  
H105     H      0.802620000000     0.752630000000     0.887390000000     0.0412523  
H106     H      0.765770000000     0.751710000000     0.931250000000     0.0430863  
H107     H      0.843450000000     0.829300000000     0.731490000000     0.0400159  
H108     H      0.739410000000     0.740700000000     0.008830000000     0.0797854  
H109     H      0.729650000000     0.766720000000     0.979720000000     0.0637868  
H110     H      0.708110000000     0.745810000000     0.995310000000     0.0886033  
H111     H      0.781190000000     0.774150000000     0.292530000000     0.0427309  
H112     H      0.771970000000     0.690150000000     0.225290000000     0.0362884  
H113     H      0.707020000000     0.726600000000     0.238040000000     0.045704   
H114     H      0.826590000000     0.757480000000     0.445630000000     0.0432908  
H115     H      0.755690000000     0.689570000000     0.148170000000     0.0471505  
H116     H      0.756110000000     0.777810000000     0.403740000000     0.0360059  
H117     H      0.821840000000     0.747290000000     0.362910000000     0.036581   
H118     H      0.778220000000     0.807590000000     0.451740000000     0.0460384  
H119     H      0.760930000000     0.752710000000     0.228690000000     0.0468465  
H120     H      0.748210000000     0.661840000000     0.171720000000     0.0397051  
H121     H      0.767190000000     0.718360000000     0.390210000000     0.0458286  
H122     H      0.746770000000     0.675720000000     0.251980000000     0.0345037  
H123     H      0.844200000000     0.777040000000     0.410660000000     0.0480261  
H124     H      0.687590000000     0.702850000000     0.188440000000     0.0279006  
H125     H      0.777400000000     0.794330000000     0.369560000000     0.0396054  
H126     H      0.815480000000     0.776650000000     0.345900000000     0.0398474  
H127     H      0.746860000000     0.696990000000     0.326550000000     0.0403857  
H128     H      0.710880000000     0.703230000000     0.278350000000     0.0402415  
H129     H      0.780690000000     0.778710000000     0.474130000000     0.0422513  
H130     H      0.705550000000     0.661130000000     0.245860000000     0.0695534  
H131     H      0.678300000000     0.677210000000     0.255630000000     0.0647537  
H132     H      0.682210000000     0.660930000000     0.201640000000     0.082868   
H133     H      0.749450000000     0.244870000000     0.718760000000     0.0426211  
H134     H      0.742000000000     0.243640000000     0.904650000000     0.0363666  
H135     H      0.751160000000     0.310390000000     0.848040000000     0.0467024  
H136     H      0.817760000000     0.187270000000     0.698160000000     0.0438116  
H137     H      0.709540000000     0.265750000000     0.932890000000     0.0479289  
H138     H      0.804830000000     0.260680000000     0.683450000000     0.0360128  
H139     H      0.782290000000     0.196860000000     0.741560000000     0.0363915  
H140     H      0.815170000000     0.240460000000     0.605940000000     0.0456336  
H141     H      0.729250000000     0.264910000000     0.784800000000     0.047672   
H142     H      0.729620000000     0.264290000000     0.982290000000     0.0392865  
H143     H      0.813840000000     0.240810000000     0.802420000000     0.0457364  
H144     H      0.764170000000     0.261940000000     0.931700000000     0.0345044  
H145     H      0.792910000000     0.177050000000     0.663940000000     0.047478   
H146     H      0.740800000000     0.327940000000     0.916210000000     0.0284572  
H147     H      0.780510000000     0.245040000000     0.656520000000     0.0385881  
H148     H      0.767660000000     0.208520000000     0.689680000000     0.0390363  
H149     H      0.793710000000     0.260760000000     0.868340000000     0.0404158  
H150     H      0.776670000000     0.299340000000     0.877910000000     0.0404303  
H151     H      0.834160000000     0.233870000000     0.655430000000     0.0427827  
H152     H      0.775490000000     0.296980000000     0.972090000000     0.0693206  
H153     H      0.781800000000     0.324880000000     0.946260000000     0.0649024  
H154     H      0.760660000000     0.322420000000     0.994240000000     0.082613   
H155     H      0.768720000000     0.260830000000     0.369500000000     0.0431737  
H156     H      0.759950000000     0.305000000000     0.211630000000     0.0363012  
H157     H      0.693280000000     0.284070000000     0.269020000000     0.04276    
H158     H      0.812410000000     0.187040000000     0.325110000000     0.041337   
H159     H      0.732150000000     0.337550000000     0.211350000000     0.0380334  
H160     H      0.744560000000     0.206610000000     0.372310000000     0.036507   
H161     H      0.808530000000     0.227440000000     0.303200000000     0.0367514  
H162     H      0.768050000000     0.183130000000     0.430750000000     0.0472757  
H163     H      0.748230000000     0.293170000000     0.330620000000     0.0455574  
H164     H      0.739870000000     0.329530000000     0.151510000000     0.0457684  
H165     H      0.753860000000     0.217690000000     0.247820000000     0.0460612  
H166     H      0.740440000000     0.288310000000     0.173750000000     0.0419078  
H167     H      0.832770000000     0.204020000000     0.360030000000     0.0488596  
H168     H      0.692710000000     0.324960000000     0.246250000000     0.0176765  
H169     H      0.765790000000     0.223530000000     0.405730000000     0.0413664  
H170     H      0.804030000000     0.235900000000     0.364500000000     0.0421635  
H171     H      0.733570000000     0.250090000000     0.208760000000     0.0429701  
H172     H      0.699970000000     0.275730000000     0.208400000000     0.0480755  
H173     H      0.771370000000     0.173660000000     0.370060000000     0.0410142  
H174     H      0.659740000000     0.294520000000     0.184800000000     0.0875421  
H175     H      0.655340000000     0.303470000000     0.245370000000     0.0643638  
H176     H      0.654930000000     0.324880000000     0.199700000000     0.0858946  
H177     H      0.653630000000     0.529990000000     0.993410000000     0.0418385  
H178     H      0.683760000000     0.446830000000     0.948190000000     0.036841   
H179     H      0.653060000000     0.453470000000     0.085390000000     0.0417398  
H180     H      0.727870000000     0.580050000000     0.999320000000     0.0430692  
H181     H      0.653430000000     0.417080000000     0.956630000000     0.0413198  
H182     H      0.679730000000     0.548970000000     0.097720000000     0.0354379  
H183     H      0.708060000000     0.549050000000     0.957380000000     0.0364474  
H184     H      0.679450000000     0.592150000000     0.098430000000     0.0453052  
H185     H      0.641800000000     0.489290000000     0.987930000000     0.0454788  
H186     H      0.682550000000     0.404290000000     0.953760000000     0.0491745  
H187     H      0.721350000000     0.509760000000     0.053270000000     0.0460694  
H188     H      0.700060000000     0.436140000000     0.999080000000     0.0407539  
H189     H      0.707670000000     0.592430000000     0.956760000000     0.0471993  
H190     H      0.633810000000     0.421270000000     0.044980000000     0.0195079  
H191     H      0.662420000000     0.561390000000     0.049990000000     0.0389842  
H192     H      0.678940000000     0.561370000000     0.967900000000     0.0389808  
H193     H      0.709490000000     0.469080000000     0.048020000000     0.0421652  
H194     H      0.682070000000     0.440190000000     0.079780000000     0.0455729  
H195     H      0.708780000000     0.579770000000     0.094740000000     0.0415522  
H196     H      0.667300000000     0.402190000000     0.122890000000     0.0830859  
H197     H      0.642370000000     0.420960000000     0.134110000000     0.0631167  
H198     H      0.636680000000     0.393450000000     0.109070000000     0.0858555  
H199     H      0.245730000000     0.745460000000     0.750740000000     0.0432441  
H200     H      0.306970000000     0.678090000000     0.782980000000     0.0367818  
H201     H      0.320040000000     0.739210000000     0.860390000000     0.0460304  
H202     H      0.250600000000     0.751770000000     0.570300000000     0.0415386  
H203     H      0.307220000000     0.666590000000     0.863410000000     0.0494438  
H204     H      0.274360000000     0.789630000000     0.691860000000     0.0363685  
H205     H      0.250010000000     0.725620000000     0.637220000000     0.0365826  
H206     H      0.244710000000     0.810650000000     0.640800000000     0.0481099  
H207     H      0.265960000000     0.725460000000     0.816510000000     0.0480017  
H208     H      0.336190000000     0.658700000000     0.842130000000     0.0411078  
H209     H      0.310120000000     0.741550000000     0.666620000000     0.0455656  
H210     H      0.337040000000     0.689160000000     0.784580000000     0.0345494  
H211     H      0.220040000000     0.746290000000     0.585990000000     0.0470205  
H212     H      0.343970000000     0.721580000000     0.912920000000     0.0275813  
H213     H      0.243840000000     0.780950000000     0.702110000000     0.0405029  
H214     H      0.229670000000     0.743690000000     0.670350000000     0.0403271  
H215     H      0.330380000000     0.721720000000     0.732400000000     0.0404649  
H216     H      0.341050000000     0.732840000000     0.814620000000     0.0402677  
H217     H      0.267490000000     0.795750000000     0.607880000000     0.0419471  
H218     H      0.372720000000     0.700380000000     0.830250000000     0.0694462  
H219     H      0.378160000000     0.727690000000     0.859450000000     0.064461   
H220     H      0.381460000000     0.701220000000     0.892070000000     0.0812245  
H221     H      0.268650000000     0.763740000000     0.161980000000     0.0424292  
H222     H      0.200960000000     0.772920000000     0.288000000000     0.0374818  
H223     H      0.265290000000     0.807290000000     0.323920000000     0.0426646  
H224     H      0.284750000000     0.677420000000     0.161900000000     0.0416517  
H225     H      0.192070000000     0.812410000000     0.312920000000     0.0396668  
H226     H      0.319740000000     0.739710000000     0.206850000000     0.0362934  
H227     H      0.254830000000     0.707000000000     0.168610000000     0.0363923  
H228     H      0.341080000000     0.718350000000     0.141130000000     0.0476288  
H229     H      0.246070000000     0.792110000000     0.209030000000     0.0456927  
H230     H      0.179450000000     0.792170000000     0.354180000000     0.0492715  
H231     H      0.275170000000     0.720440000000     0.286200000000     0.0464135  
H232     H      0.214240000000     0.766470000000     0.345080000000     0.0432138  
H233     H      0.276080000000     0.685630000000     0.102770000000     0.0460644  
H234     H      0.230760000000     0.832950000000     0.333680000000     0.018854   
H235     H      0.307280000000     0.744320000000     0.148370000000     0.0393959  
H236     H      0.269800000000     0.725420000000     0.126270000000     0.0394536  
H237     H      0.252730000000     0.748810000000     0.333280000000     0.0431733  
H238     H      0.253100000000     0.787300000000     0.366870000000     0.0474047  
H239     H      0.330550000000     0.700500000000     0.188970000000     0.0437266  
H240     H      0.254580000000     0.820410000000     0.429310000000     0.0855651  
H241     H      0.266350000000     0.838700000000     0.383370000000     0.0648299  
H242     H      0.240130000000     0.847740000000     0.414230000000     0.0873824  
H243     H      0.487570000000     0.687740000000     0.976620000000     0.0421705  
H244     H      0.570170000000     0.698240000000     0.054710000000     0.0367989  
H245     H      0.572870000000     0.659160000000     0.927160000000     0.0421545  
H246     H      0.440780000000     0.639800000000     0.096320000000     0.0420904  
H247     H      0.601420000000     0.713790000000     0.003120000000     0.0397795  
H248     H      0.470420000000     0.631760000000     0.959210000000     0.0359525  
H249     H      0.471430000000     0.669170000000     0.089290000000     0.036636   
H250     H      0.425700000000     0.630030000000     0.961950000000     0.0463718  
H251     H      0.528820000000     0.700190000000     0.961690000000     0.045444   
H252     H      0.614160000000     0.701750000000     0.056160000000     0.0486633  
H253     H      0.513670000000     0.628160000000     0.052310000000     0.0459098  
H254     H      0.584510000000     0.670360000000     0.056360000000     0.0418357  
H255     H      0.426830000000     0.667680000000     0.093710000000     0.0484362  
H256     H      0.602890000000     0.689880000000     0.925040000000     0.018962   
H257     H      0.456530000000     0.659830000000     0.961220000000     0.0394435  
H258     H      0.457100000000     0.681910000000     0.038100000000     0.0406592  
H259     H      0.554920000000     0.640680000000     0.037600000000     0.0423595  
H260     H      0.586160000000     0.646980000000     0.980070000000     0.0463266  
H261     H      0.439990000000     0.615190000000     0.010360000000     0.0417255  
H262     H      0.626150000000     0.641790000000     0.933260000000     0.0847708  
H263     H      0.609960000000     0.652810000000     0.882990000000     0.0642481  
H264     H      0.637160000000     0.666540000000     0.899270000000     0.0870359  
H265     H      0.263390000000     0.241950000000     0.687920000000     0.0430031  
H266     H      0.268080000000     0.300980000000     0.825620000000     0.0373917  
H267     H      0.330050000000     0.259350000000     0.813240000000     0.0424497  
H268     H      0.195930000000     0.187810000000     0.732860000000     0.0418247  
H269     H      0.303800000000     0.325250000000     0.827810000000     0.0396954  
H270     H      0.270440000000     0.185290000000     0.722500000000     0.0364701  
H271     H      0.209130000000     0.227650000000     0.739120000000     0.0370116  
H272     H      0.248750000000     0.160480000000     0.663830000000     0.0480929  
H273     H      0.288020000000     0.272560000000     0.723070000000     0.0457676  
H274     H      0.288200000000     0.326670000000     0.883600000000     0.0490828  
H275     H      0.251200000000     0.213420000000     0.827810000000     0.0460997  
H276     H      0.277640000000     0.285380000000     0.877930000000     0.0426334  
H277     H      0.186600000000     0.203390000000     0.680720000000     0.0482398  
H278     H      0.340510000000     0.300360000000     0.819840000000     0.0187257  
H279     H      0.259900000000     0.201180000000     0.671370000000     0.0411728  
H280     H      0.223270000000     0.226480000000     0.681300000000     0.0416517  
H281     H      0.275790000000     0.244060000000     0.862970000000     0.04263    
H282     H      0.315270000000     0.260190000000     0.870490000000     0.0468669  
H283     H      0.235370000000     0.160570000000     0.722140000000     0.0418591  
H284     H      0.356070000000     0.271660000000     0.906930000000     0.0842515  
H285     H      0.368870000000     0.271510000000     0.848290000000     0.0638873  
H286     H      0.371260000000     0.297120000000     0.883200000000     0.0865281  
H287     H      0.228190000000     0.207450000000     0.279850000000     0.0430313  
H288     H      0.256660000000     0.282730000000     0.202270000000     0.0368888  
H289     H      0.300390000000     0.225890000000     0.165700000000     0.0417099  
H290     H      0.239930000000     0.222940000000     0.457100000000     0.0416526  
H291     H      0.260460000000     0.281680000000     0.115910000000     0.0408167  
H292     H      0.268870000000     0.180000000000     0.349230000000     0.0363707  
H293     H      0.230230000000     0.240950000000     0.381800000000     0.0366246  
H294     H      0.247020000000     0.158730000000     0.414010000000     0.047737   
H295     H      0.239180000000     0.225020000000     0.203280000000     0.0459236  
H296     H      0.275160000000     0.306650000000     0.139550000000     0.0482763  
H297     H      0.289840000000     0.238600000000     0.345590000000     0.0458964  
H298     H      0.288580000000     0.285170000000     0.209790000000     0.0407776  
H299     H      0.208380000000     0.220370000000     0.447060000000     0.0479209  
H300     H      0.288850000000     0.245430000000     0.092410000000     0.0192774  
H301     H      0.236850000000     0.180130000000     0.342160000000     0.0406057  
H302     H      0.214200000000     0.215830000000     0.361390000000     0.0410086  
H303     H      0.300730000000     0.256330000000     0.269150000000     0.0418734  
H304     H      0.314290000000     0.251670000000     0.188670000000     0.0449568  
H305     H      0.265800000000     0.181640000000     0.435180000000     0.0420707  
H306     H      0.341960000000     0.255770000000     0.112710000000     0.0824148  
H307     H      0.329940000000     0.227390000000     0.103230000000     0.0627252  
H308     H      0.328060000000     0.247660000000     0.056150000000     0.0851501  
H309     H      0.543650000000     0.339390000000     0.054200000000     0.0427126  
H310     H      0.459840000000     0.349210000000     0.979350000000     0.0363927  
H311     H      0.460190000000     0.307000000000     0.102310000000     0.0416433  
H312     H      0.592670000000     0.296000000000     0.931840000000     0.0405331  
H313     H      0.429610000000     0.363720000000     0.034050000000     0.0406402  
H314     H      0.561830000000     0.282390000000     0.063450000000     0.0358247  
H315     H      0.560370000000     0.324000000000     0.938870000000     0.0365346  
H316     H      0.606500000000     0.282400000000     0.062560000000     0.0465107  
H317     H      0.502240000000     0.350340000000     0.071750000000     0.045515   
H318     H      0.415860000000     0.352050000000     0.981670000000     0.0473719  
H319     H      0.518580000000     0.281470000000     0.971690000000     0.0453854  
H320     H      0.445740000000     0.321240000000     0.976650000000     0.0398929  
H321     H      0.605010000000     0.324570000000     0.936130000000     0.0473023  
H322     H      0.429610000000     0.336480000000     0.112650000000     0.0200126  
H323     H      0.574250000000     0.311060000000     0.067500000000     0.0412992  
H324     H      0.573370000000     0.336260000000     0.991990000000     0.0416887  
H325     H      0.477120000000     0.292490000000     0.989150000000     0.04148    
H326     H      0.446120000000     0.296340000000     0.048830000000     0.0448332  
H327     H      0.593600000000     0.270020000000     0.009730000000     0.0401884  
H328     H      0.405110000000     0.289670000000     0.093570000000     0.0824042  
H329     H      0.424310000000     0.295530000000     0.143420000000     0.062987   
H330     H      0.397420000000     0.311430000000     0.138290000000     0.0868363  
H331     H      0.344410000000     0.468780000000     0.024430000000     0.0431943  
H332     H      0.292070000000     0.543730000000     0.003510000000     0.0369457  
H333     H      0.342520000000     0.546650000000     0.115040000000     0.0459721  
H334     H      0.279910000000     0.407810000000     0.040080000000     0.0426116  
H335     H      0.315190000000     0.576370000000     0.985500000000     0.0493999  
H336     H      0.329440000000     0.441500000000     0.129620000000     0.0362754  
H337     H      0.290880000000     0.443160000000     0.999550000000     0.0369979  
H338     H      0.336530000000     0.399070000000     0.119750000000     0.0467753  
H339     H      0.348150000000     0.510970000000     0.021120000000     0.0480273  
H340     H      0.289200000000     0.588200000000     0.013360000000     0.0412105  
H341     H      0.279030000000     0.475650000000     0.104630000000     0.0459675  
H342     H      0.282640000000     0.554580000000     0.060760000000     0.034725   
H343     H      0.297460000000     0.400790000000     0.988420000000     0.0486384  
H344     H      0.341600000000     0.585210000000     0.118610000000     0.027797   
H345     H      0.344760000000     0.434320000000     0.074940000000     0.0404453  
H346     H      0.322040000000     0.435240000000     0.998370000000     0.0410517  
H347     H      0.282840000000     0.517800000000     0.101600000000     0.0406482  
H348     H      0.311990000000     0.545860000000     0.132680000000     0.0403459  
H349     H      0.305590000000     0.406660000000     0.126540000000     0.0422216  
H350     H      0.286790000000     0.583640000000     0.125540000000     0.0699792  
H351     H      0.307820000000     0.582860000000     0.174390000000     0.0648347  
H352     H      0.305550000000     0.608210000000     0.137830000000     0.0820817  
N1       N      0.167050000000     0.886950000000     0.536930000000    -0.164563   
N2       N      0.173650000000     0.933770000000     0.534300000000    -0.107783   
N3       N      0.178460000000     0.032010000000     0.537470000000    -0.113075   
N4       N      0.187880000000     0.079430000000     0.535180000000    -0.153465   
N5       N      0.925110000000     0.850000000000     0.515750000000    -0.165976   
N6       N      0.974780000000     0.840260000000     0.517620000000    -0.111019   
N7       N      0.063740000000     0.795140000000     0.551400000000    -0.113923   
N8       N      0.113500000000     0.788230000000     0.553370000000    -0.154722   
N9       N      0.821140000000     0.905980000000     0.492290000000    -0.166241   
N10      N      0.820480000000     0.954800000000     0.485410000000    -0.110905   
N11      N      0.846090000000     0.048970000000     0.515030000000    -0.113646   
N12      N      0.846990000000     0.097570000000     0.518880000000    -0.154258   
N13      N      0.914500000000     0.193760000000     0.537170000000    -0.166033   
N14      N      0.965170000000     0.195030000000     0.535350000000    -0.11087    
N15      N      0.062020000000     0.165250000000     0.523160000000    -0.113431   
N16      N      0.111940000000     0.160330000000     0.530090000000    -0.153846   
N17      N      0.734490000000     0.710580000000     0.937110000000    -0.164855   
N18      N      0.758320000000     0.735530000000     0.864710000000    -0.109865   
N19      N      0.820830000000     0.787680000000     0.745310000000    -0.113899   
N20      N      0.840240000000     0.811220000000     0.666390000000    -0.154888   
N21      N      0.719110000000     0.685230000000     0.165810000000    -0.164392   
N22      N      0.740960000000     0.711120000000     0.234170000000    -0.107776   
N23      N      0.787680000000     0.759540000000     0.384600000000    -0.113568   
N24      N      0.812420000000     0.791210000000     0.442490000000    -0.154157   
N25      N      0.727790000000     0.296940000000     0.947990000000    -0.164532   
N26      N      0.747400000000     0.275860000000     0.869650000000    -0.107568   
N27      N      0.795720000000     0.229320000000     0.718430000000    -0.113426   
N28      N      0.811270000000     0.206540000000     0.635580000000    -0.153863   
N29      N      0.704140000000     0.320350000000     0.175040000000    -0.166996   
N30      N      0.727880000000     0.293660000000     0.245080000000    -0.11097    
N31      N      0.775020000000     0.217440000000     0.332620000000    -0.113781   
N32      N      0.801860000000     0.190670000000     0.397090000000    -0.154341   
N33      N      0.665050000000     0.403650000000     0.022860000000    -0.165529   
N34      N      0.666710000000     0.452530000000     0.014930000000    -0.110957   
N35      N      0.695860000000     0.546570000000     0.029090000000    -0.113671   
N36      N      0.697280000000     0.595180000000     0.030510000000    -0.154532   
N37      N      0.335460000000     0.687670000000     0.888660000000    -0.163932   
N38      N      0.310870000000     0.710320000000     0.818850000000    -0.107495   
N39      N      0.265360000000     0.756590000000     0.664070000000    -0.113662   
N40      N      0.233510000000     0.780060000000     0.603350000000    -0.154083   
N41      N      0.210640000000     0.811030000000     0.378640000000    -0.166121   
N42      N      0.234210000000     0.789620000000     0.300770000000    -0.110866   
N43      N      0.286650000000     0.722670000000     0.194470000000    -0.113427   
N44      N      0.311030000000     0.696600000000     0.125070000000    -0.154111   
N45      N      0.619470000000     0.682210000000     0.990850000000    -0.16586    
N46      N      0.568850000000     0.679570000000     0.989430000000    -0.111009   
N47      N      0.473640000000     0.649140000000     0.025790000000    -0.113755   
N48      N      0.423410000000     0.646400000000     0.030920000000    -0.154492   
N49      N      0.321260000000     0.307050000000     0.883250000000    -0.166266   
N50      N      0.298100000000     0.279060000000     0.814640000000    -0.110985   
N51      N      0.240690000000     0.207200000000     0.736330000000    -0.113766   
N52      N      0.215660000000     0.179330000000     0.671010000000    -0.154033   
N53      N      0.298180000000     0.279430000000     0.112720000000    -0.166193   
N54      N      0.276160000000     0.252380000000     0.184990000000    -0.110927   
N55      N      0.252220000000     0.212190000000     0.364410000000    -0.113662   
N56      N      0.228940000000     0.189100000000     0.439760000000    -0.154204   
N57      N      0.411930000000     0.332010000000     0.046600000000    -0.165908   
N58      N      0.462590000000     0.329470000000     0.042970000000    -0.111028   
N59      N      0.558280000000     0.302530000000     0.000330000000    -0.114005   
N60      N      0.608560000000     0.303050000000     0.998580000000    -0.154709   
N61      N      0.320720000000     0.589150000000     0.055500000000    -0.163828   
N62      N      0.318590000000     0.542230000000     0.057970000000    -0.107403   
N63      N      0.308200000000     0.444430000000     0.067010000000    -0.113656   
N64      N      0.314800000000     0.396510000000     0.056520000000    -0.1539     
O1       O      0.374050000000     0.319610000000     0.068410000000    -0.261424   
O2       O      0.316020000000     0.364300000000     0.008580000000    -0.247754   
O3       O      0.328300000000     0.289130000000     0.059480000000    -0.263859   
O4       O      0.344810000000     0.307030000000     0.951180000000    -0.261321   
O5       O      0.312640000000     0.326830000000     0.952500000000    -0.250796   
O6       O      0.305270000000     0.316010000000     0.083500000000    -0.257916   
O7       O      0.377260000000     0.340080000000     0.005380000000    -0.257276   
O8       O      0.334680000000     0.362960000000     0.075450000000    -0.253995   
O9       O      0.312120000000     0.669680000000     0.064740000000    -0.257763   
O10      O      0.349520000000     0.688100000000     0.965870000000    -0.259183   
O11      O      0.342450000000     0.621670000000     0.074050000000    -0.258364   
O12      O      0.387750000000     0.660480000000     0.059650000000    -0.249588   
O13      O      0.387050000000     0.641400000000     0.994050000000    -0.258198   
O14      O      0.326240000000     0.619880000000     0.004680000000    -0.247258   
O15      O      0.345160000000     0.685790000000     0.084960000000    -0.248364   
O16      O      0.332760000000     0.657070000000     0.940660000000    -0.248347   
O17      O      0.694600000000     0.296970000000     0.996520000000    -0.257415   
O18      O      0.673440000000     0.320020000000     0.119660000000    -0.256486   
O19      O      0.640930000000     0.326480000000     0.983840000000    -0.256597   
O20      O      0.678640000000     0.368640000000     0.994360000000    -0.249988   
O21      O      0.662800000000     0.368910000000     0.063660000000    -0.264686   
O22      O      0.641580000000     0.305610000000     0.047080000000    -0.251396   
O23      O      0.711080000000     0.329600000000     0.980880000000    -0.25207    
O24      O      0.707870000000     0.331250000000     0.096300000000    -0.260465   
O25      O      0.723750000000     0.675370000000     0.969140000000    -0.250604   
O26      O      0.688430000000     0.682460000000     0.111350000000    -0.2507     
O27      O      0.701880000000     0.630410000000     0.993570000000    -0.249596   
O28      O      0.656450000000     0.665350000000     0.977280000000    -0.263632   
O29      O      0.652120000000     0.685470000000     0.040520000000    -0.251061   
O30      O      0.686820000000     0.629960000000     0.064090000000    -0.259425   
O31      O      0.703980000000     0.705060000000     0.991610000000    -0.26301    
O32      O      0.723730000000     0.672770000000     0.088440000000    -0.257116   
O33      O      0.833750000000     0.132100000000     0.549600000000    -0.249404   
O34      O      0.880340000000     0.188930000000     0.492290000000    -0.248746   
O35      O      0.819520000000     0.173470000000     0.593190000000    -0.247116   
O36      O      0.805150000000     0.175450000000     0.472660000000    -0.25687    
O37      O      0.837270000000     0.186580000000     0.437710000000    -0.24935    
O38      O      0.830930000000     0.205840000000     0.563400000000    -0.256242   
O39      O      0.855210000000     0.133160000000     0.486210000000    -0.257294   
O40      O      0.879910000000     0.175820000000     0.563440000000    -0.263581   
O41      O      0.853060000000     0.809330000000     0.588500000000    -0.257374   
O42      O      0.813690000000     0.822520000000     0.492910000000    -0.258475   
O43      O      0.889040000000     0.853320000000     0.555960000000    -0.264251   
O44      O      0.825280000000     0.874510000000     0.542570000000    -0.25571    
O45      O      0.844400000000     0.874000000000     0.476570000000    -0.257545   
O46      O      0.888770000000     0.837130000000     0.487510000000    -0.249872   
O47      O      0.836800000000     0.840890000000     0.612230000000    -0.251238   
O48      O      0.847040000000     0.807350000000     0.471640000000    -0.249158   
O49      O      0.145920000000     0.792300000000     0.503510000000    -0.248682   
O50      O      0.184560000000     0.852990000000     0.561110000000    -0.248936   
O51      O      0.181470000000     0.803990000000     0.434960000000    -0.249422   
O52      O      0.202170000000     0.780750000000     0.550210000000    -0.256994   
O53      O      0.214810000000     0.813140000000     0.577560000000    -0.249695   
O54      O      0.212570000000     0.822210000000     0.457940000000    -0.263125   
O55      O      0.147490000000     0.808560000000     0.572280000000    -0.257874   
O56      O      0.164930000000     0.852790000000     0.495290000000    -0.260528   
O57      O      0.218500000000     0.155930000000     0.479920000000    -0.25321    
O58      O      0.186490000000     0.177240000000     0.613410000000    -0.251115   
O59      O      0.183600000000     0.115200000000     0.500610000000    -0.253043   
O60      O      0.150090000000     0.163150000000     0.499700000000    -0.251629   
O61      O      0.146060000000     0.151960000000     0.572300000000    -0.252668   
O62      O      0.194440000000     0.113800000000     0.574050000000    -0.250881   
O63      O      0.198930000000     0.186880000000     0.495710000000    -0.254181   
O64      O      0.217530000000     0.155790000000     0.604990000000    -0.251487   


