data_structure

_audit_creation_method RASPA-1.0
_audit_creation_date 2023-5-25
_audit_author_name 'Poobodin Mano'

_cell_length_a    38.6411
_cell_length_b    39.7053
_cell_length_c    54.3832
_cell_angle_alpha 90
_cell_angle_beta  90
_cell_angle_gamma 90
_cell_volume      83437.8

_symmetry_cell_setting          triclinic
_symmetry_space_group_name_Hall 'P 1'
_symmetry_space_group_name_H-M  'P 1'
_symmetry_Int_Tables_number     1

_symmetry_equiv_pos_as_xyz 'x,y,z'

loop_
_atom_site_label
_atom_site_type_symbol
_atom_site_fract_x
_atom_site_fract_y
_atom_site_fract_z
_atom_site_charge
C1       C      0.008700000000     0.487390000000     0.823180000000     0.345959   
C2       C      0.898860000000     0.482170000000     0.775100000000     0.345495   
C3       C      0.988650000000     0.414500000000     0.757800000000     0.338429   
C4       C      0.927120000000     0.410300000000     0.839580000000     0.338812   
C5       C      0.152420000000     0.675110000000     0.010180000000     0.339003   
C6       C      0.242700000000     0.746040000000     0.005960000000     0.348664   
C7       C      0.153430000000     0.768280000000     0.065890000000     0.339813   
C8       C      0.228570000000     0.684640000000     0.081540000000     0.349076   
C9       C      0.407130000000     0.894480000000     0.808260000000     0.33914    
C10      C      0.413030000000     0.965350000000     0.744680000000     0.347529   
C11      C      0.503630000000     0.965200000000     0.810840000000     0.347469   
C12      C      0.505690000000     0.893460000000     0.747480000000     0.347831   
C13      C      0.738840000000     0.205500000000     0.998410000000     0.348543   
C14      C      0.656690000000     0.128330000000     0.006570000000     0.338835   
C15      C      0.756610000000     0.120590000000     0.059810000000     0.338169   
C16      C      0.675770000000     0.197980000000     0.077250000000     0.340136   
C17      C      0.500280000000     0.478470000000     0.309370000000     0.348009   
C18      C      0.416530000000     0.481610000000     0.242170000000     0.338233   
C19      C      0.493240000000     0.400810000000     0.241020000000     0.347814   
C20      C      0.413310000000     0.403270000000     0.310010000000     0.34724    
C21      C      0.758840000000     0.635030000000     0.572110000000     0.339202   
C22      C      0.665030000000     0.705040000000     0.566520000000     0.339756   
C23      C      0.764510000000     0.710910000000     0.508390000000     0.347556   
C24      C      0.674460000000     0.634160000000     0.502370000000     0.33788    
C25      C      0.907200000000     0.916400000000     0.329920000000     0.339775   
C26      C      0.914890000000     0.998240000000     0.265710000000     0.348162   
C27      C      0.997810000000     0.988860000000     0.331650000000     0.348291   
C28      C      0.992480000000     0.910230000000     0.265540000000     0.347939   
C29      C      0.181330000000     0.238550000000     0.583400000000     0.348824   
C30      C      0.266220000000     0.163520000000     0.565380000000     0.339449   
C31      C      0.158410000000     0.169970000000     0.516120000000     0.338621   
C32      C      0.251430000000     0.241870000000     0.506040000000     0.338507   
C33      C      0.045290000000     0.007010000000     0.388910000000    -0.0304199  
C34      C      0.105210000000     0.151040000000     0.462830000000    -0.0287718  
C35      C      0.124600000000     0.118030000000     0.508660000000    -0.0107324  
C36      C      0.109960000000     0.171770000000     0.486330000000    -0.0108126  
C37      C      0.109280000000     0.089870000000     0.428960000000    -0.0549923  
C38      C      0.041030000000     0.067320000000     0.424140000000    -0.0549153  
C39      C      0.084910000000     0.097380000000     0.447430000000     0.0629583  
C40      C      0.119580000000     0.098990000000     0.484470000000    -0.028735   
C41      C      0.065330000000     0.060100000000     0.405570000000     0.063117   
C42      C      0.029880000000     0.059650000000     0.368880000000    -0.0776245  
C43      C      0.099440000000     0.071430000000     0.408220000000    -0.0513173  
C44      C      0.025530000000     0.042310000000     0.343870000000     0.166705   
C45      C      0.041360000000     0.987310000000     0.364870000000    -0.00230583 
C46      C      0.050850000000     0.085850000000     0.444850000000    -0.0524713  
C47      C      0.797350000000     0.787350000000     0.479230000000    -0.0303318  
C48      C      0.874900000000     0.842460000000     0.362930000000    -0.0284199  
C49      C      0.865340000000     0.915290000000     0.364330000000    -0.0105554  
C50      C      0.877260000000     0.862960000000     0.339220000000    -0.0109265  
C51      C      0.869830000000     0.828280000000     0.417950000000    -0.0550782  
C52      C      0.802140000000     0.804930000000     0.424480000000    -0.0548464  
C53      C      0.843770000000     0.837980000000     0.401280000000     0.0630305  
C54      C      0.863220000000     0.892790000000     0.387170000000    -0.0286886  
C55      C      0.828270000000     0.794910000000     0.440990000000     0.0629697  
C56      C      0.809530000000     0.739060000000     0.452980000000    -0.0774594  
C57      C      0.862030000000     0.806900000000     0.437610000000    -0.051347   
C58      C      0.807670000000     0.714640000000     0.474850000000     0.166518   
C59      C      0.795050000000     0.764910000000     0.502030000000    -0.00249644 
C60      C      0.809950000000     0.826250000000     0.404800000000    -0.0524777  
C61      C      0.353350000000     0.387660000000     0.361520000000    -0.0303281  
C62      C      0.308510000000     0.258550000000     0.452760000000    -0.0283542  
C63      C      0.263510000000     0.296260000000     0.485900000000    -0.0111463  
C64      C      0.302230000000     0.245430000000     0.478810000000    -0.0109665  
C65      C      0.300650000000     0.303130000000     0.407220000000    -0.0551006  
C66      C      0.359950000000     0.343570000000     0.407370000000    -0.0549783  
C67      C      0.317980000000     0.309580000000     0.429510000000     0.0628653  
C68      C      0.271640000000     0.307180000000     0.459530000000    -0.0282555  
C69      C      0.342660000000     0.337080000000     0.385070000000     0.0629099  
C70      C      0.389200000000     0.338130000000     0.355230000000    -0.077472   
C71      C      0.312980000000     0.316830000000     0.385230000000    -0.0514002  
C72      C      0.398010000000     0.348620000000     0.328780000000     0.166545   
C73      C      0.360590000000     0.400420000000     0.335490000000    -0.00279961 
C74      C      0.347620000000     0.329880000000     0.429360000000    -0.0525491  
C75      C      0.562940000000     0.492960000000     0.359410000000    -0.0303533  
C76      C      0.613160000000     0.619280000000     0.451360000000    -0.0283644  
C77      C      0.660120000000     0.580270000000     0.482230000000    -0.0110882  
C78      C      0.621300000000     0.631450000000     0.477400000000    -0.0110559  
C79      C      0.618010000000     0.576300000000     0.404770000000    -0.055136   
C80      C      0.558790000000     0.535800000000     0.406020000000    -0.0549617  
C81      C      0.602030000000     0.569130000000     0.427450000000     0.0628862  
C82      C      0.650210000000     0.570260000000     0.455980000000    -0.0283817  
C83      C      0.574770000000     0.542960000000     0.383330000000     0.0629297  
C84      C      0.526610000000     0.542510000000     0.354810000000    -0.0774179  
C85      C      0.604410000000     0.563260000000     0.382940000000    -0.0513984  
C86      C      0.516390000000     0.532670000000     0.328480000000     0.166487   
C87      C      0.554320000000     0.480850000000     0.333430000000    -0.00270762 
C88      C      0.572400000000     0.548830000000     0.427840000000    -0.0525861  
C89      C      0.850630000000     0.018000000000     0.219310000000    -0.0303366  
C90      C      0.826600000000     0.106590000000     0.101750000000    -0.0289611  
C91      C      0.768650000000     0.067790000000     0.082460000000    -0.0107541  
C92      C      0.816230000000     0.109450000000     0.074640000000    -0.0106774  
C93      C      0.819670000000     0.088570000000     0.155820000000    -0.0551584  
C94      C      0.863540000000     0.033810000000     0.164490000000    -0.0548236  
C95      C      0.829760000000     0.067740000000     0.136110000000     0.0630801  
C96      C      0.779860000000     0.066240000000     0.109410000000    -0.0286138  
C97      C      0.853890000000     0.054960000000     0.184130000000     0.0628599  
C98      C      0.903560000000     0.049590000000     0.211100000000    -0.077438   
C99      C      0.831850000000     0.082250000000     0.179570000000    -0.0513971  
C100     C      0.914330000000     0.048020000000     0.238250000000     0.166401   
C101     C      0.859470000000     0.015380000000     0.246680000000    -0.00236158 
C102     C      0.851640000000     0.040340000000     0.140690000000    -0.0528215  
C103     C      0.516210000000     0.329440000000     0.199820000000    -0.030515   
C104     C      0.657420000000     0.265230000000     0.122130000000    -0.0286249  
C105     C      0.628130000000     0.200640000000     0.107360000000    -0.010744   
C106     C      0.681150000000     0.237700000000     0.111950000000    -0.0105681  
C107     C      0.589820000000     0.300730000000     0.135630000000    -0.0549808  
C108     C      0.584380000000     0.294600000000     0.186740000000    -0.0550122  
C109     C      0.607180000000     0.274390000000     0.147820000000     0.062969   
C110     C      0.606560000000     0.229680000000     0.117620000000    -0.028456   
C111     C      0.566950000000     0.320870000000     0.174530000000     0.0633845  
C112     C      0.566380000000     0.365380000000     0.204980000000    -0.0776904  
C113     C      0.569900000000     0.323730000000     0.148960000000    -0.0512864  
C114     C      0.544400000000     0.394840000000     0.214430000000     0.166883   
C115     C      0.491670000000     0.356780000000     0.209220000000    -0.00267267 
C116     C      0.604300000000     0.271590000000     0.173410000000    -0.0523816  
C117     C      0.369270000000     0.985470000000     0.686520000000    -0.0304045  
C118     C      0.317750000000     0.135780000000     0.616890000000    -0.0287281  
C119     C      0.296910000000     0.109000000000     0.569250000000    -0.0105569  
C120     C      0.315180000000     0.159010000000     0.594540000000    -0.010601   
C121     C      0.307790000000     0.071420000000     0.647020000000    -0.0551056  
C122     C      0.375200000000     0.047170000000     0.653200000000    -0.0548965  
C123     C      0.333490000000     0.079640000000     0.629660000000     0.0632602  
C124     C      0.300110000000     0.087150000000     0.592320000000    -0.0287064  
C125     C      0.349540000000     0.039130000000     0.670630000000     0.063105   
C126     C      0.381310000000     0.037250000000     0.708860000000    -0.0775749  
C127     C      0.315860000000     0.051300000000     0.667290000000    -0.0510919  
C128     C      0.383840000000     0.018490000000     0.733450000000     0.16681    
C129     C      0.371620000000     0.964490000000     0.710070000000    -0.00225924 
C130     C      0.367110000000     0.067240000000     0.632890000000    -0.0525965  
C131     C      0.552430000000     0.871940000000     0.691040000000    -0.0302037  
C132     C      0.617130000000     0.725480000000     0.622330000000    -0.0287646  
C133     C      0.629480000000     0.755700000000     0.574270000000    -0.0106274  
C134     C      0.621190000000     0.703060000000     0.599630000000    -0.0106432  
C135     C      0.619010000000     0.789730000000     0.653130000000    -0.0550637  
C136     C      0.549660000000     0.807600000000     0.660010000000    -0.0550402  
C137     C      0.593800000000     0.778700000000     0.636240000000     0.0629891  
C138     C      0.625250000000     0.776340000000     0.597820000000    -0.0286505  
C139     C      0.574850000000     0.818490000000     0.676960000000     0.0631227  
C140     C      0.542490000000     0.821060000000     0.715020000000    -0.0775597  
C141     C      0.609490000000     0.809430000000     0.673310000000    -0.0513777  
C142     C      0.538440000000     0.841290000000     0.738890000000     0.166661   
C143     C      0.548660000000     0.894190000000     0.713850000000    -0.002467   
C144     C      0.559180000000     0.787840000000     0.639860000000    -0.0525146  
C145     C      0.554000000000     0.980180000000     0.866770000000    -0.030149   
C146     C      0.601190000000     0.114350000000     0.953590000000    -0.0286938  
C147     C      0.631340000000     0.074220000000     0.993020000000    -0.0107501  
C148     C      0.605410000000     0.129400000000     0.979330000000    -0.0106177  
C149     C      0.610930000000     0.062630000000     0.912050000000    -0.0549705  
C150     C      0.545620000000     0.033120000000     0.906730000000    -0.0547644  
C151     C      0.587550000000     0.062880000000     0.931920000000     0.0633767  
C152     C      0.626260000000     0.060930000000     0.966890000000    -0.0286976  
C153     C      0.569240000000     0.032340000000     0.887000000000     0.0632501  
C154     C      0.532620000000     0.033640000000     0.850920000000    -0.0774829  
C155     C      0.601770000000     0.047370000000     0.889830000000    -0.0510893  
C156     C      0.528700000000     0.019180000000     0.824870000000     0.16669    
C157     C      0.550740000000     0.963570000000     0.841520000000    -0.00269729 
C158     C      0.554860000000     0.048200000000     0.929000000000    -0.0525033  
C159     C      0.060640000000     0.888380000000     0.221810000000    -0.0302019  
C160     C      0.084950000000     0.794430000000     0.106470000000    -0.0290021  
C161     C      0.150600000000     0.821750000000     0.089250000000    -0.0103307  
C162     C      0.096310000000     0.789380000000     0.079760000000    -0.0103333  
C163     C      0.092060000000     0.812360000000     0.160760000000    -0.0550046  
C164     C      0.054370000000     0.871930000000     0.166820000000    -0.0547491  
C165     C      0.086520000000     0.833730000000     0.140460000000     0.063338   
C166     C      0.137900000000     0.825770000000     0.115730000000    -0.0289746  
C167     C      0.059600000000     0.850370000000     0.187060000000     0.0630777  
C168     C      0.007460000000     0.858990000000     0.210880000000    -0.0775638  
C169     C      0.078600000000     0.820670000000     0.183820000000    -0.0509078  
C170     C      0.993680000000     0.861460000000     0.237270000000     0.16667    
C171     C      0.048870000000     0.892160000000     0.248550000000    -0.00267492 
C172     C      0.067730000000     0.863550000000     0.143740000000    -0.0526592  
C173     C      0.276900000000     0.807610000000     0.961960000000    -0.0302684  
C174     C      0.373480000000     0.826580000000     0.846580000000    -0.0285828  
C175     C      0.357700000000     0.897180000000     0.837030000000    -0.0110063  
C176     C      0.378910000000     0.841280000000     0.820850000000    -0.0108291  
C177     C      0.359110000000     0.826970000000     0.902040000000    -0.0551795  
C178     C      0.291900000000     0.801710000000     0.907130000000    -0.0549145  
C179     C      0.335880000000     0.828860000000     0.882130000000     0.0631488  
C180     C      0.353050000000     0.880650000000     0.862190000000    -0.0283903  
C181     C      0.314950000000     0.800360000000     0.927170000000     0.0630606  
C182     C      0.295380000000     0.751400000000     0.949900000000    -0.0775871  
C183     C      0.348600000000     0.812850000000     0.924350000000    -0.0512606  
C184     C      0.290170000000     0.737750000000     0.976070000000     0.166752   
C185     C      0.270880000000     0.796400000000     0.988490000000    -0.00256063 
C186     C      0.302390000000     0.815910000000     0.884830000000    -0.0525465  
C187     C      0.300210000000     0.649510000000     0.118200000000    -0.0302688  
C188     C      0.341300000000     0.519630000000     0.209730000000    -0.0281101  
C189     C      0.416750000000     0.522910000000     0.208480000000    -0.0113289  
C190     C      0.362330000000     0.489700000000     0.219210000000    -0.0110328  
C191     C      0.326590000000     0.590150000000     0.189140000000    -0.0550742  
C192     C      0.312590000000     0.579430000000     0.139270000000    -0.0546757  
C193     C      0.339660000000     0.561270000000     0.177320000000     0.0634022  
C194     C      0.393040000000     0.551160000000     0.199470000000    -0.0278729  
C195     C      0.299830000000     0.608510000000     0.151000000000     0.0632159  
C196     C      0.246940000000     0.620310000000     0.128690000000    -0.0776411  
C197     C      0.306890000000     0.613550000000     0.176000000000    -0.0511751  
C198     C      0.224550000000     0.649220000000     0.118760000000     0.166865   
C199     C      0.280340000000     0.679540000000     0.107760000000    -0.00260573 
C200     C      0.332370000000     0.556100000000     0.152380000000    -0.0521963  
C201     C      0.117360000000     0.257800000000     0.632030000000    -0.0306118  
C202     C      0.053240000000     0.396290000000     0.709360000000    -0.0284201  
C203     C      0.991980000000     0.364830000000     0.730700000000    -0.010979   
C204     C      0.024960000000     0.418420000000     0.720630000000    -0.0110265  
C205     C      0.092440000000     0.332120000000     0.695470000000    -0.0550763  
C206     C      0.078470000000     0.322380000000     0.645490000000    -0.0549058  
C207     C      0.062270000000     0.346010000000     0.685060000000     0.0629798  
C208     C      0.021710000000     0.345050000000     0.719010000000    -0.0284283  
C209     C      0.108640000000     0.308480000000     0.655890000000     0.0629844  
C210     C      0.148830000000     0.308780000000     0.621680000000    -0.0774896  
C211     C      0.115360000000     0.313540000000     0.680930000000    -0.051176   
C212     C      0.178650000000     0.288800000000     0.610040000000     0.166629   
C213     C      0.145470000000     0.235460000000     0.620820000000    -0.0024637  
C214     C      0.055560000000     0.340980000000     0.660020000000    -0.0524574  
C215     C      0.803060000000     0.234010000000     0.952400000000    -0.0305236  
C216     C      0.863880000000     0.384770000000     0.886730000000    -0.0285502  
C217     C      0.927220000000     0.358550000000     0.864750000000    -0.0107937  
C218     C      0.891470000000     0.409210000000     0.877270000000    -0.010935   
C219     C      0.826920000000     0.317920000000     0.895650000000    -0.0550085  
C220     C      0.840040000000     0.301630000000     0.944830000000    -0.0548391  
C221     C      0.856240000000     0.331360000000     0.907510000000     0.0629153  
C222     C      0.898170000000     0.336140000000     0.874620000000    -0.028579   
C223     C      0.810640000000     0.288310000000     0.933000000000     0.062958   
C224     C      0.770040000000     0.282180000000     0.966700000000    -0.0774385  
C225     C      0.804360000000     0.296630000000     0.908380000000    -0.0511555  
C226     C      0.740640000000     0.259740000000     0.976320000000     0.166615   
C227     C      0.775430000000     0.209310000000     0.961390000000    -0.00241006 
C228     C      0.862550000000     0.323000000000     0.932130000000    -0.0524506  
C229     C      0.842760000000     0.493370000000     0.723390000000    -0.0302258  
C230     C      0.806270000000     0.621890000000     0.629620000000    -0.0283294  
C231     C      0.778090000000     0.580870000000     0.589910000000    -0.0110162  
C232     C      0.805250000000     0.635800000000     0.603390000000    -0.0110001  
C233     C      0.791750000000     0.573170000000     0.672190000000    -0.0551439  
C234     C      0.855410000000     0.541700000000     0.680660000000    -0.0547118  
C235     C      0.816260000000     0.571080000000     0.653080000000     0.0630503  
C236     C      0.780160000000     0.568960000000     0.616640000000    -0.0283928  
C237     C      0.830880000000     0.543700000000     0.699780000000     0.062773   
C238     C      0.866450000000     0.547750000000     0.736280000000    -0.077464   
C239     C      0.799090000000     0.559520000000     0.695310000000    -0.051389   
C240     C      0.870070000000     0.535490000000     0.762960000000     0.166328   
C241     C      0.845790000000     0.479600000000     0.749590000000    -0.00236701 
C242     C      0.848040000000     0.555270000000     0.657550000000    -0.0523389  
C243     C      0.064840000000     0.507420000000     0.874370000000    -0.0302181  
C244     C      0.102970000000     0.650890000000     0.955420000000    -0.0285347  
C245     C      0.134200000000     0.617860000000     0.997860000000    -0.0109643  
C246     C      0.104890000000     0.669360000000     0.980080000000    -0.0108824  
C247     C      0.116550000000     0.595680000000     0.917320000000    -0.0551571  
C248     C      0.053460000000     0.561500000000     0.913600000000    -0.0548919  
C249     C      0.093210000000     0.596170000000     0.937210000000     0.0629149  
C250     C      0.131130000000     0.601290000000     0.972530000000    -0.0284843  
C251     C      0.076730000000     0.561120000000     0.893660000000     0.0628671  
C252     C      0.038660000000     0.558930000000     0.858370000000    -0.0776106  
C253     C      0.108280000000     0.578260000000     0.895760000000    -0.051548   
C254     C      0.034110000000     0.543180000000     0.832780000000     0.166515   
C255     C      0.061030000000     0.489950000000     0.849420000000    -0.00251673 
C256     C      0.061740000000     0.578900000000     0.935150000000    -0.0524014  
Cd1      Cd     0.955840000000     0.448040000000     0.798920000000     0.506635   
Cd2      Cd     0.194460000000     0.717960000000     0.040940000000     0.507699   
Cd3      Cd     0.457390000000     0.929380000000     0.778240000000     0.508752   
Cd4      Cd     0.707120000000     0.164020000000     0.035770000000     0.506828   
Cd5      Cd     0.455940000000     0.441210000000     0.276330000000     0.508628   
Cd6      Cd     0.716470000000     0.671160000000     0.537090000000     0.50653    
Cd7      Cd     0.953010000000     0.953550000000     0.297900000000     0.507608   
Cd8      Cd     0.213300000000     0.203950000000     0.542430000000     0.506513   
H1       H      0.031860000000     0.091340000000     0.458940000000     0.0475506  
H2       H      0.065160000000     0.994230000000     0.400420000000     0.0393865  
H3       H      0.037950000000     0.086250000000     0.365820000000     0.0535508  
H4       H      0.100130000000     0.116560000000     0.519380000000     0.0429947  
H5       H      0.067450000000     0.983660000000     0.356670000000     0.054013   
H6       H      0.085330000000     0.163600000000     0.451200000000     0.0381036  
H7       H      0.110340000000     0.073100000000     0.488770000000     0.038244   
H8       H      0.120290000000     0.197000000000     0.481360000000     0.0483447  
H9       H      0.003150000000     0.054370000000     0.334340000000     0.0125486  
H10      H      0.014510000000     0.058830000000     0.422550000000     0.0436818  
H11      H      0.030640000000     0.961980000000     0.369150000000     0.0472154  
H12      H      0.135810000000     0.098340000000     0.430530000000     0.0446705  
H13      H      0.020260000000     0.006520000000     0.399070000000     0.0406626  
H14      H      0.145180000000     0.105330000000     0.519520000000     0.0498106  
H15      H      0.130080000000     0.150740000000     0.452490000000     0.0421449  
H16      H      0.144960000000     0.096950000000     0.474890000000     0.042783   
H17      H      0.118390000000     0.066050000000     0.394090000000     0.0513851  
H18      H      0.004430000000     0.060000000000     0.378500000000     0.0507451  
H19      H      0.084160000000     0.175450000000     0.494990000000     0.0426276  
H20      H      0.054350000000     0.069740000000     0.322470000000     0.144277   
H21      H      0.789670000000     0.833480000000     0.392110000000     0.0478177  
H22      H      0.806770000000     0.812640000000     0.485000000000     0.0393402  
H23      H      0.827750000000     0.728700000000     0.439030000000     0.0530509  
H24      H      0.838630000000     0.920160000000     0.357600000000     0.0442219  
H25      H      0.820400000000     0.765580000000     0.511690000000     0.053557   
H26      H      0.865320000000     0.816800000000     0.358270000000     0.038638   
H27      H      0.844890000000     0.904480000000     0.400450000000     0.0380243  
H28      H      0.896910000000     0.851180000000     0.327010000000     0.0511667  
H29      H      0.795440000000     0.690820000000     0.468300000000     0.0103986  
H30      H      0.775820000000     0.796120000000     0.426700000000     0.0437424  
H31      H      0.775280000000     0.775560000000     0.514690000000     0.0483286  
H32      H      0.896180000000     0.836950000000     0.415640000000     0.0446477  
H33      H      0.771010000000     0.790340000000     0.471200000000     0.0415357  
H34      H      0.876900000000     0.939880000000     0.369650000000     0.0484199  
H35      H      0.901250000000     0.839980000000     0.371050000000     0.0428612  
H36      H      0.889200000000     0.891530000000     0.395990000000     0.041619   
H37      H      0.882360000000     0.799450000000     0.450180000000     0.051052   
H38      H      0.783470000000     0.740740000000     0.444320000000     0.0502525  
H39      H      0.851860000000     0.861660000000     0.329650000000     0.0442428  
H40      H      0.851360000000     0.690620000000     0.472310000000     0.143494   
H41      H      0.361240000000     0.334990000000     0.446360000000     0.0476114  
H42      H      0.327210000000     0.396590000000     0.367150000000     0.0391949  
H43      H      0.389970000000     0.310150000000     0.356520000000     0.053003   
H44      H      0.280140000000     0.310910000000     0.498700000000     0.0450844  
H45      H      0.338400000000     0.393440000000     0.323510000000     0.0537849  
H46      H      0.334690000000     0.250200000000     0.446760000000     0.0378197  
H47      H      0.270320000000     0.335160000000     0.458600000000     0.0380534  
H48      H      0.301140000000     0.217450000000     0.478200000000     0.0482668  
H49      H      0.425660000000     0.341970000000     0.325330000000     0.0103631  
H50      H      0.382940000000     0.359120000000     0.407760000000     0.0431324  
H51      H      0.362090000000     0.428370000000     0.335970000000     0.0473201  
H52      H      0.277740000000     0.287460000000     0.406830000000     0.044084   
H53      H      0.372730000000     0.398680000000     0.374370000000     0.0400543  
H54      H      0.236120000000     0.302700000000     0.490050000000     0.0492834  
H55      H      0.289060000000     0.247260000000     0.440090000000     0.0409449  
H56      H      0.251600000000     0.296750000000     0.446930000000     0.0409425  
H57      H      0.299430000000     0.311630000000     0.368220000000     0.0511444  
H58      H      0.409310000000     0.348320000000     0.367880000000     0.0494294  
H59      H      0.324650000000     0.252590000000     0.490520000000     0.0442949  
H60      H      0.386990000000     0.308270000000     0.310110000000     0.1438     
H61      H      0.559820000000     0.543150000000     0.445150000000     0.0474832  
H62      H      0.589390000000     0.483980000000     0.364190000000     0.039145   
H63      H      0.525820000000     0.570450000000     0.356510000000     0.0530227  
H64      H      0.644120000000     0.565400000000     0.495310000000     0.0444874  
H65      H      0.575810000000     0.488220000000     0.320940000000     0.0537953  
H66      H      0.586630000000     0.627910000000     0.446440000000     0.0377093  
H67      H      0.651280000000     0.542310000000     0.454540000000     0.038109   
H68      H      0.622360000000     0.659440000000     0.477310000000     0.0481393  
H69      H      0.488550000000     0.539290000000     0.325880000000     0.010495   
H70      H      0.535860000000     0.520190000000     0.406840000000     0.0430996  
H71      H      0.552940000000     0.452880000000     0.333560000000     0.0471276  
H72      H      0.640890000000     0.591980000000     0.403950000000     0.044105   
H73      H      0.544310000000     0.481530000000     0.372630000000     0.040011   
H74      H      0.687660000000     0.573420000000     0.485400000000     0.0496554  
H75      H      0.631760000000     0.630960000000     0.438240000000     0.0410097  
H76      H      0.669470000000     0.581010000000     0.442930000000     0.0413059  
H77      H      0.616960000000     0.568980000000     0.365630000000     0.0511079  
H78      H      0.507250000000     0.531900000000     0.367870000000     0.0494389  
H79      H      0.599760000000     0.623810000000     0.489750000000     0.0437509  
H80      H      0.526240000000     0.573550000000     0.310100000000     0.143988   
H81      H      0.859270000000     0.023870000000     0.125780000000     0.0473049  
H82      H      0.821950000000     0.018340000000     0.217380000000     0.039246   
H83      H      0.914080000000     0.073090000000     0.202800000000     0.0529855  
H84      H      0.781560000000     0.046920000000     0.072360000000     0.0426897  
H85      H      0.845800000000     0.035910000000     0.256640000000     0.0538009  
H86      H      0.855050000000     0.110480000000     0.103230000000     0.0382065  
H87      H      0.773950000000     0.040630000000     0.116610000000     0.038102   
H88      H      0.821810000000     0.135390000000     0.068040000000     0.0487672  
H89      H      0.943060000000     0.045420000000     0.238990000000     0.0118372  
H90      H      0.880140000000     0.012270000000     0.167550000000     0.0433225  
H91      H      0.849610000000     0.990970000000     0.253820000000     0.0474443  
H92      H      0.802300000000     0.109570000000     0.152890000000     0.0445481  
H93      H      0.860720000000     0.995350000000     0.209580000000     0.0415272  
H94      H      0.740240000000     0.063720000000     0.081330000000     0.049687   
H95      H      0.813400000000     0.126930000000     0.112250000000     0.0426394  
H96      H      0.764620000000     0.084920000000     0.120200000000     0.0430217  
H97      H      0.823950000000     0.098520000000     0.194530000000     0.0506184  
H98      H      0.915320000000     0.027810000000     0.201270000000     0.0501045  
H99      H      0.832410000000     0.091670000000     0.063810000000     0.042384   
H100     H      0.922030000000     0.095210000000     0.246050000000     0.143581   
H101     H      0.617490000000     0.251430000000     0.183010000000     0.0475934  
H102     H      0.501780000000     0.313260000000     0.186620000000     0.0396091  
H103     H      0.589890000000     0.375620000000     0.195790000000     0.0536473  
H104     H      0.633590000000     0.182590000000     0.122500000000     0.0432436  
H105     H      0.478790000000     0.368810000000     0.193190000000     0.0524793  
H106     H      0.672560000000     0.280850000000     0.135290000000     0.0380295  
H107     H      0.583810000000     0.218900000000     0.127410000000     0.0382046  
H108     H      0.702010000000     0.249760000000     0.100950000000     0.0485937  
H109     H      0.558940000000     0.407100000000     0.229750000000     0.0112143  
H110     H      0.582540000000     0.291870000000     0.206500000000     0.0436531  
H111     H      0.471160000000     0.344630000000     0.220510000000     0.0481808  
H112     H      0.591570000000     0.303440000000     0.115870000000     0.0446958  
H113     H      0.524620000000     0.313420000000     0.215530000000     0.0406325  
H114     H      0.612570000000     0.187170000000     0.093240000000     0.0491057  
H115     H      0.648840000000     0.281740000000     0.106730000000     0.0419612  
H116     H      0.596880000000     0.245350000000     0.102080000000     0.0421189  
H117     H      0.556640000000     0.343830000000     0.139350000000     0.0516393  
H118     H      0.575070000000     0.349860000000     0.220880000000     0.0499898  
H119     H      0.693580000000     0.224440000000     0.127650000000     0.0426557  
H120     H      0.560360000000     0.432340000000     0.194440000000     0.144906   
H121     H      0.387160000000     0.073480000000     0.619750000000     0.0476169  
H122     H      0.350800000000     0.972920000000     0.673750000000     0.039098   
H123     H      0.372170000000     0.063410000000     0.712400000000     0.0534499  
H124     H      0.321450000000     0.107080000000     0.558660000000     0.0428268  
H125     H      0.344970000000     0.959880000000     0.717010000000     0.0527609  
H126     H      0.338250000000     0.145700000000     0.629310000000     0.0388627  
H127     H      0.307670000000     0.061240000000     0.586630000000     0.0382099  
H128     H      0.307020000000     0.184470000000     0.600750000000     0.050662   
H129     H      0.404780000000     0.030610000000     0.744460000000     0.012378   
H130     H      0.401480000000     0.038280000000     0.655440000000     0.0437846  
H131     H      0.383250000000     0.939650000000     0.705520000000     0.0466355  
H132     H      0.281660000000     0.080830000000     0.645050000000     0.0452828  
H133     H      0.395160000000     0.986120000000     0.677540000000     0.0407934  
H134     H      0.275700000000     0.098960000000     0.557540000000     0.0497047  
H135     H      0.292680000000     0.136240000000     0.626990000000     0.0439601  
H136     H      0.274400000000     0.085790000000     0.601520000000     0.0430903  
H137     H      0.295930000000     0.045450000000     0.680630000000     0.0514096  
H138     H      0.407570000000     0.038870000000     0.700490000000     0.0511914  
H139     H      0.341330000000     0.161330000000     0.586160000000     0.0428963  
H140     H      0.351960000000     0.043580000000     0.754170000000     0.144067   
H141     H      0.539540000000     0.779600000000     0.626980000000     0.0474708  
H142     H      0.570520000000     0.884540000000     0.678030000000     0.0393387  
H143     H      0.552940000000     0.795660000000     0.719540000000     0.0532379  
H144     H      0.604100000000     0.754760000000     0.564650000000     0.0431583  
H145     H      0.574930000000     0.900180000000     0.720950000000     0.0542672  
H146     H      0.599520000000     0.712620000000     0.635530000000     0.0379181  
H147     H      0.613680000000     0.801120000000     0.592920000000     0.038087   
H148     H      0.634130000000     0.679220000000     0.605160000000     0.0481119  
H149     H      0.517930000000     0.828890000000     0.750150000000     0.0120367  
H150     H      0.522730000000     0.814320000000     0.662380000000     0.0437046  
H151     H      0.536210000000     0.918280000000     0.708360000000     0.0476617  
H152     H      0.645970000000     0.783120000000     0.650710000000     0.0446279  
H153     H      0.526770000000     0.869560000000     0.681870000000     0.0410117  
H154     H      0.648170000000     0.768750000000     0.562000000000     0.0496755  
H155     H      0.642850000000     0.728550000000     0.631290000000     0.041938   
H156     H      0.651230000000     0.780930000000     0.606030000000     0.0426047  
H157     H      0.629130000000     0.817670000000     0.686180000000     0.051278   
H158     H      0.516510000000     0.817590000000     0.706520000000     0.0507715  
H159     H      0.594990000000     0.696610000000     0.592610000000     0.0428141  
H160     H      0.571170000000     0.819230000000     0.760740000000     0.144021   
H161     H      0.536570000000     0.048350000000     0.944080000000     0.0479083  
H162     H      0.575640000000     0.967880000000     0.876870000000     0.0398285  
H163     H      0.538110000000     0.061110000000     0.849550000000     0.0534     
H164     H      0.608980000000     0.066010000000     0.004410000000     0.0435964  
H165     H      0.576540000000     0.963960000000     0.832470000000     0.0545808  
H166     H      0.578220000000     0.126160000000     0.944740000000     0.0388572  
H167     H      0.621800000000     0.033270000000     0.967850000000     0.0385477  
H168     H      0.610980000000     0.156770000000     0.977560000000     0.050617   
H169     H      0.505000000000     0.030460000000     0.816520000000     0.012054   
H170     H      0.520210000000     0.021930000000     0.904960000000     0.0438553  
H171     H      0.543220000000     0.936770000000     0.844100000000     0.0485205  
H172     H      0.636260000000     0.074020000000     0.913760000000     0.045235   
H173     H      0.529670000000     0.975840000000     0.877280000000     0.0411343  
H174     H      0.655090000000     0.062710000000     0.000930000000     0.0500187  
H175     H      0.624450000000     0.120580000000     0.942380000000     0.0435274  
H176     H      0.650350000000     0.065470000000     0.956160000000     0.0428895  
H177     H      0.620110000000     0.047110000000     0.874770000000     0.0516587  
H178     H      0.507720000000     0.030520000000     0.860990000000     0.0509606  
H179     H      0.580510000000     0.126600000000     0.989370000000     0.0438383  
H180     H      0.554360000000     0.051370000000     0.805060000000     0.144239   
H181     H      0.063390000000     0.880280000000     0.128320000000     0.0474623  
H182     H      0.089400000000     0.886800000000     0.221520000000     0.0401544  
H183     H      0.996760000000     0.835870000000     0.202130000000     0.0529041  
H184     H      0.142970000000     0.844550000000     0.078680000000     0.0430768  
H185     H      0.060770000000     0.871630000000     0.259590000000     0.0545058  
H186     H      0.056180000000     0.795630000000     0.107000000000     0.0383556  
H187     H      0.148080000000     0.849960000000     0.123110000000     0.0390458  
H188     H      0.086360000000     0.764770000000     0.073060000000     0.049359   
H189     H      0.965140000000     0.865510000000     0.236250000000     0.0109702  
H190     H      0.039860000000     0.895070000000     0.168850000000     0.0433704  
H191     H      0.058670000000     0.916530000000     0.255820000000     0.0489651  
H192     H      0.106660000000     0.789260000000     0.158760000000     0.0460806  
H193     H      0.052710000000     0.911170000000     0.211280000000     0.04144    
H194     H      0.179320000000     0.820270000000     0.089250000000     0.0507354  
H195     H      0.093440000000     0.772290000000     0.117490000000     0.0438912  
H196     H      0.148500000000     0.804830000000     0.127080000000     0.0448468  
H197     H      0.082850000000     0.803890000000     0.199220000000     0.0516862  
H198     H      0.998060000000     0.881120000000     0.200210000000     0.0498354  
H199     H      0.084420000000     0.809550000000     0.068360000000     0.0426213  
H200     H      0.982500000000     0.814860000000     0.244840000000     0.143519   
H201     H      0.284260000000     0.817200000000     0.869670000000     0.0478007  
H202     H      0.284290000000     0.834720000000     0.962090000000     0.0394297  
H203     H      0.316330000000     0.736760000000     0.940760000000     0.0529268  
H204     H      0.332340000000     0.897040000000     0.827370000000     0.044295   
H205     H      0.293960000000     0.803380000000     0.999600000000     0.0538936  
H206     H      0.366870000000     0.799420000000     0.844690000000     0.0383614  
H207     H      0.331370000000     0.893470000000     0.871880000000     0.0383902  
H208     H      0.401640000000     0.828800000000     0.812250000000     0.0500089  
H209     H      0.279700000000     0.711630000000     0.974560000000     0.00984551 
H210     H      0.265760000000     0.792220000000     0.908820000000     0.0435045  
H211     H      0.248360000000     0.810460000000     0.996000000000     0.0481932  
H212     H      0.385140000000     0.836760000000     0.900430000000     0.0446553  
H213     H      0.252290000000     0.804980000000     0.951470000000     0.0410229  
H214     H      0.365470000000     0.923880000000     0.839730000000     0.0498077  
H215     H      0.398100000000     0.828600000000     0.857130000000     0.0425395  
H216     H      0.377080000000     0.884350000000     0.873170000000     0.0421263  
H217     H      0.366580000000     0.811970000000     0.939620000000     0.0511641  
H218     H      0.271130000000     0.747530000000     0.939190000000     0.0495751  
H219     H      0.355780000000     0.835360000000     0.809470000000     0.0438591  
H220     H      0.334420000000     0.716450000000     0.982920000000     0.143602   
H221     H      0.342190000000     0.533950000000     0.143090000000     0.0486738  
H222     H      0.325400000000     0.658740000000     0.125510000000     0.0401292  
H223     H      0.232630000000     0.607350000000     0.143740000000     0.0532298  
H224     H      0.426380000000     0.508640000000     0.192270000000     0.0472608  
H225     H      0.279470000000     0.699700000000     0.121940000000     0.0533273  
H226     H      0.316190000000     0.510010000000     0.202560000000     0.0384981  
H227     H      0.406670000000     0.565130000000     0.184590000000     0.0390339  
H228     H      0.348970000000     0.479040000000     0.235580000000     0.0499624  
H229     H      0.201560000000     0.637900000000     0.109480000000     0.0104939  
H230     H      0.307450000000     0.574900000000     0.119990000000     0.0441179  
H231     H      0.294840000000     0.689590000000     0.091690000000     0.0494489  
H232     H      0.331750000000     0.594650000000     0.208420000000     0.0445247  
H233     H      0.305640000000     0.631310000000     0.103090000000     0.0417305  
H234     H      0.439580000000     0.534390000000     0.217700000000     0.0512145  
H235     H      0.335740000000     0.537110000000     0.225260000000     0.0413174  
H236     H      0.388060000000     0.569000000000     0.214880000000     0.0413923  
H237     H      0.297200000000     0.635770000000     0.185260000000     0.0512728  
H238     H      0.251330000000     0.601650000000     0.113720000000     0.0504847  
H239     H      0.362740000000     0.469840000000     0.204800000000     0.046345   
H240     H      0.193440000000     0.658250000000     0.146070000000     0.143104   
H241     H      0.032440000000     0.351490000000     0.651780000000     0.0475675  
H242     H      0.104680000000     0.243620000000     0.647220000000     0.0391853  
H243     H      0.159190000000     0.332930000000     0.629060000000     0.0532928  
H244     H      0.970640000000     0.366990000000     0.717070000000     0.0439382  
H245     H      0.162200000000     0.225780000000     0.635880000000     0.0524407  
H246     H      0.066080000000     0.410760000000     0.694390000000     0.0383201  
H247     H      0.011050000000     0.321280000000     0.711230000000     0.0381337  
H248     H      0.037400000000     0.440350000000     0.729770000000     0.049559   
H249     H      0.187430000000     0.302800000000     0.593370000000     0.0108926  
H250     H      0.072640000000     0.318830000000     0.626200000000     0.0435212  
H251     H      0.132870000000     0.213400000000     0.611950000000     0.0465128  
H252     H      0.098230000000     0.335610000000     0.714770000000     0.0446461  
H253     H      0.097440000000     0.263360000000     0.617800000000     0.0404522  
H254     H      0.981980000000     0.350320000000     0.746680000000     0.0495449  
H255     H      0.073000000000     0.390510000000     0.723670000000     0.0419605  
H256     H      0.040880000000     0.338340000000     0.733500000000     0.0417633  
H257     H      0.138450000000     0.302980000000     0.689180000000     0.0512395  
H258     H      0.129500000000     0.315010000000     0.607180000000     0.0498995  
H259     H      0.008350000000     0.428280000000     0.705570000000     0.0434024  
H260     H      0.219130000000     0.307840000000     0.626080000000     0.144066   
H261     H      0.885060000000     0.333050000000     0.941450000000     0.0475668  
H262     H      0.816350000000     0.222660000000     0.936240000000     0.0392183  
H263     H      0.759120000000     0.307070000000     0.961330000000     0.0533305  
H264     H      0.947740000000     0.360510000000     0.879010000000     0.0437644  
H265     H      0.759210000000     0.201650000000     0.945450000000     0.0521096  
H266     H      0.850040000000     0.396940000000     0.902330000000     0.0384158  
H267     H      0.909780000000     0.312120000000     0.881200000000     0.0382205  
H268     H      0.878360000000     0.431730000000     0.869460000000     0.0495314  
H269     H      0.731300000000     0.270770000000     0.993990000000     0.0106743  
H270     H      0.845560000000     0.295490000000     0.963820000000     0.0435566  
H271     H      0.788530000000     0.186340000000     0.968470000000     0.0470523  
H272     H      0.821530000000     0.323840000000     0.876610000000     0.0447865  
H273     H      0.822630000000     0.237790000000     0.967190000000     0.0407934  
H274     H      0.938790000000     0.346200000000     0.848340000000     0.0497402  
H275     H      0.844790000000     0.379900000000     0.871800000000     0.0423041  
H276     H      0.879870000000     0.330180000000     0.859410000000     0.0422466  
H277     H      0.781910000000     0.286500000000     0.899030000000     0.0512718  
H278     H      0.789000000000     0.286530000000     0.981800000000     0.0499473  
H279     H      0.907430000000     0.417720000000     0.893100000000     0.043166   
H280     H      0.699840000000     0.280240000000     0.961710000000     0.144005   
H281     H      0.867160000000     0.553560000000     0.643040000000     0.0480518  
H282     H      0.820320000000     0.481010000000     0.714270000000     0.0394266  
H283     H      0.861670000000     0.575400000000     0.736360000000     0.0531499  
H284     H      0.800740000000     0.570650000000     0.579750000000     0.0443362  
H285     H      0.820460000000     0.483040000000     0.758970000000     0.0539163  
H286     H      0.828760000000     0.633310000000     0.639330000000     0.0383812  
H287     H      0.783310000000     0.541090000000     0.616710000000     0.0382433  
H288     H      0.800390000000     0.663380000000     0.604230000000     0.0495603  
H289     H      0.893650000000     0.547350000000     0.771010000000     0.0127289  
H290     H      0.880220000000     0.529740000000     0.683630000000     0.044203   
H291     H      0.851190000000     0.452130000000     0.748740000000     0.0475758  
H292     H      0.767050000000     0.585370000000     0.669250000000     0.0442911  
H293     H      0.866630000000     0.486650000000     0.713020000000     0.0420421  
H294     H      0.754320000000     0.570250000000     0.581390000000     0.0498579  
H295     H      0.782220000000     0.629500000000     0.639460000000     0.0418263  
H296     H      0.755450000000     0.575200000000     0.626140000000     0.0419425  
H297     H      0.780020000000     0.561340000000     0.709840000000     0.0505793  
H298     H      0.891310000000     0.543130000000     0.726470000000     0.0520675  
H299     H      0.831070000000     0.631920000000     0.594810000000     0.044748   
H300     H      0.844050000000     0.569360000000     0.780950000000     0.143456   
H301     H      0.043520000000     0.579100000000     0.950280000000     0.0478361  
H302     H      0.088060000000     0.496970000000     0.883780000000     0.03929    
H303     H      0.042300000000     0.586600000000     0.856270000000     0.0530876  
H304     H      0.112390000000     0.608980000000     0.009520000000     0.0440535  
H305     H      0.085890000000     0.492410000000     0.839280000000     0.0536784  
H306     H      0.079720000000     0.660020000000     0.945330000000     0.0379661  
H307     H      0.128770000000     0.573580000000     0.975150000000     0.0380748  
H308     H      0.109000000000     0.696640000000     0.976510000000     0.0486767  
H309     H      0.009510000000     0.553000000000     0.824780000000     0.0125983  
H310     H      0.028880000000     0.548550000000     0.912450000000     0.0440641  
H311     H      0.056210000000     0.462680000000     0.852500000000     0.0473941  
H312     H      0.141010000000     0.608870000000     0.918410000000     0.0439995  
H313     H      0.041690000000     0.501620000000     0.885810000000     0.041555   
H314     H      0.158690000000     0.609390000000     0.006620000000     0.0491267  
H315     H      0.126310000000     0.657210000000     0.944330000000     0.0412634  
H316     H      0.155170000000     0.606340000000     0.961850000000     0.0415918  
H317     H      0.126390000000     0.578250000000     0.880570000000     0.0505694  
H318     H      0.014580000000     0.554750000000     0.869200000000     0.0516789  
H319     H      0.079590000000     0.666560000000     0.989610000000     0.0440399  
H320     H      0.057290000000     0.575650000000     0.811710000000     0.143389   
N1       N      0.019560000000     0.005830000000     0.347150000000    -0.167801   
N2       N      0.056050000000     0.041800000000     0.383590000000    -0.100237   
N3       N      0.094000000000     0.116590000000     0.469030000000    -0.113308   
N4       N      0.132520000000     0.153720000000     0.503760000000    -0.153861   
N5       N      0.787370000000     0.729790000000     0.495010000000    -0.168344   
N6       N      0.821390000000     0.772430000000     0.461280000000    -0.100463   
N7       N      0.851010000000     0.858980000000     0.380220000000    -0.113165   
N8       N      0.885140000000     0.898550000000     0.344640000000    -0.15324    
N9       N      0.392380000000     0.385120000000     0.325360000000    -0.168235   
N10      N      0.354630000000     0.350640000000     0.361940000000    -0.100347   
N11      N      0.306410000000     0.295520000000     0.452580000000    -0.113089   
N12      N      0.270530000000     0.260050000000     0.489560000000    -0.15343    
N13      N      0.521960000000     0.496290000000     0.324390000000    -0.168375   
N14      N      0.561570000000     0.529960000000     0.360380000000    -0.100378   
N15      N      0.615080000000     0.582310000000     0.450390000000    -0.113173   
N16      N      0.653730000000     0.616420000000     0.486650000000    -0.153458   
N17      N      0.897060000000     0.019310000000     0.250380000000    -0.168504   
N18      N      0.865550000000     0.049050000000     0.208980000000    -0.100543   
N19      N      0.817240000000     0.073060000000     0.111400000000    -0.113479   
N20      N      0.779580000000     0.100110000000     0.071700000000    -0.1538     
N21      N      0.510280000000     0.383030000000     0.223220000000    -0.168099   
N22      N      0.546050000000     0.345120000000     0.187570000000    -0.100193   
N23      N      0.627620000000     0.249840000000     0.134680000000    -0.113187   
N24      N      0.661340000000     0.212950000000     0.097420000000    -0.154201   
N25      N      0.391430000000     0.982500000000     0.729190000000    -0.168174   
N26      N      0.357130000000     0.019670000000     0.692390000000    -0.100268   
N27      N      0.326470000000     0.101320000000     0.608950000000    -0.113365   
N28      N      0.291390000000     0.144460000000     0.576230000000    -0.153534   
N29      N      0.529070000000     0.876510000000     0.733240000000    -0.168034   
N30      N      0.566060000000     0.838720000000     0.698110000000    -0.100337   
N31      N      0.602580000000     0.758340000000     0.615160000000    -0.113316   
N32      N      0.640310000000     0.721020000000     0.580170000000    -0.153932   
N33      N      0.525940000000     0.982120000000     0.825940000000    -0.168089   
N34      N      0.560980000000     0.016420000000     0.863880000000    -0.100295   
N35      N      0.596330000000     0.077640000000     0.955350000000    -0.113248   
N36      N      0.632650000000     0.111320000000     0.992950000000    -0.15327    
N37      N      0.010870000000     0.889440000000     0.250340000000    -0.168335   
N38      N      0.045540000000     0.857690000000     0.211060000000    -0.100319   
N39      N      0.099780000000     0.825890000000     0.116310000000    -0.113282   
N40      N      0.134250000000     0.792020000000     0.077940000000    -0.153552   
N41      N      0.266060000000     0.759570000000     0.989870000000    -0.168447   
N42      N      0.304660000000     0.787330000000     0.950840000000    -0.100408   
N43      N      0.345240000000     0.844590000000     0.859140000000    -0.113228   
N44      N      0.382920000000     0.878160000000     0.822170000000    -0.153561   
N45      N      0.244520000000     0.670070000000     0.101300000000    -0.168526   
N46      N      0.280000000000     0.633610000000     0.137970000000    -0.100339   
N47      N      0.360580000000     0.536770000000     0.190090000000    -0.112814   
N48      N      0.398360000000     0.499350000000     0.224930000000    -0.152543   
N49      N      0.167250000000     0.254470000000     0.603340000000    -0.168516   
N50      N      0.132900000000     0.289000000000     0.641550000000    -0.100301   
N51      N      0.037860000000     0.365240000000     0.699450000000    -0.11317    
N52      N      0.003080000000     0.399050000000     0.737810000000    -0.153499   
N53      N      0.752860000000     0.224850000000     0.980140000000    -0.168341   
N54      N      0.786770000000     0.266090000000     0.945440000000    -0.100292   
N55      N      0.880300000000     0.353280000000     0.894970000000    -0.113167   
N56      N      0.914310000000     0.392680000000     0.859180000000    -0.153442   
N57      N      0.872550000000     0.498410000000     0.763160000000    -0.167959   
N58      N      0.837650000000     0.530170000000     0.723970000000    -0.100569   
N59      N      0.809800000000     0.584990000000     0.628980000000    -0.113168   
N60      N      0.779040000000     0.617970000000     0.588580000000    -0.153219   
N61      N      0.033350000000     0.506130000000     0.834960000000    -0.16792    
N62      N      0.068810000000     0.544020000000     0.870900000000    -0.100527   
N63      N      0.100460000000     0.614350000000     0.959620000000    -0.11322    
N64      N      0.132220000000     0.654850000000     0.995780000000    -0.153477   
O1       O      0.922180000000     0.498030000000     0.786620000000    -0.245546   
O2       O      0.948940000000     0.397590000000     0.824900000000    -0.247973   
O3       O      0.984850000000     0.500890000000     0.810640000000    -0.244863   
O4       O      0.995170000000     0.444850000000     0.763180000000    -0.25419    
O5       O      0.967330000000     0.399540000000     0.771690000000    -0.248158   
O6       O      0.008330000000     0.455530000000     0.824240000000    -0.254743   
O7       O      0.901570000000     0.450400000000     0.775020000000    -0.25512    
O8       O      0.918340000000     0.440450000000     0.835300000000    -0.254115   
O9       O      0.240550000000     0.714610000000     0.009580000000    -0.251285   
O10      O      0.196800000000     0.680070000000     0.076980000000    -0.250495   
O11      O      0.174490000000     0.663150000000     0.025040000000    -0.250277   
O12      O      0.139740000000     0.742650000000     0.056040000000    -0.250052   
O13      O      0.185960000000     0.770600000000     0.064020000000    -0.248177   
O14      O      0.149880000000     0.706910000000     0.009620000000    -0.251715   
O15      O      0.222350000000     0.764280000000     0.018410000000    -0.250925   
O16      O      0.244530000000     0.704150000000     0.067070000000    -0.251895   
O17      O      0.417860000000     0.933900000000     0.742760000000    -0.255286   
O18      O      0.489640000000     0.879230000000     0.764910000000    -0.245543   
O19      O      0.427130000000     0.878870000000     0.793780000000    -0.247476   
O20      O      0.484400000000     0.980390000000     0.795620000000    -0.244885   
O21      O      0.501300000000     0.933430000000     0.811030000000    -0.254725   
O22      O      0.410630000000     0.926140000000     0.808930000000    -0.254566   
O23      O      0.428950000000     0.979960000000     0.762000000000    -0.244377   
O24      O      0.499170000000     0.924400000000     0.744200000000    -0.253983   
O25      O      0.656410000000     0.160110000000     0.008400000000    -0.249648   
O26      O      0.705640000000     0.205720000000     0.069580000000    -0.253208   
O27      O      0.746100000000     0.174540000000     0.000710000000    -0.253363   
O28      O      0.765490000000     0.148670000000     0.050750000000    -0.251221   
O29      O      0.725080000000     0.112660000000     0.057420000000    -0.248971   
O30      O      0.717200000000     0.217290000000     0.013650000000    -0.248528   
O31      O      0.680380000000     0.113170000000     0.018230000000    -0.247194   
O32      O      0.660330000000     0.175010000000     0.065460000000    -0.254174   
O33      O      0.448350000000     0.486920000000     0.246100000000    -0.247059   
O34      O      0.439060000000     0.390140000000     0.299240000000    -0.248775   
O35      O      0.473970000000     0.491790000000     0.299450000000    -0.24947    
O36      O      0.506880000000     0.425930000000     0.251580000000    -0.245989   
O37      O      0.462500000000     0.393870000000     0.247290000000    -0.249861   
O38      O      0.505760000000     0.447850000000     0.304150000000    -0.253085   
O39      O      0.402810000000     0.458120000000     0.254520000000    -0.248006   
O40      O      0.407630000000     0.434020000000     0.305340000000    -0.25213    
O41      O      0.673560000000     0.674730000000     0.570540000000    -0.25524    
O42      O      0.700720000000     0.621080000000     0.512510000000    -0.246135   
O43      O      0.737370000000     0.620090000000     0.558330000000    -0.247223   
O44      O      0.748120000000     0.723030000000     0.526470000000    -0.249249   
O45      O      0.758710000000     0.680240000000     0.503550000000    -0.254318   
O46      O      0.760720000000     0.666670000000     0.569620000000    -0.253219   
O47      O      0.680500000000     0.719590000000     0.548970000000    -0.247245   
O48      O      0.668030000000     0.664420000000     0.508090000000    -0.255116   
O49      O      0.900050000000     0.975130000000     0.277760000000    -0.254503   
O50      O      0.006940000000     0.932570000000     0.278570000000    -0.251322   
O51      O      0.924040000000     0.902470000000     0.312760000000    -0.247441   
O52      O      0.979820000000     0.004030000000     0.315650000000    -0.245891   
O53      O      0.994920000000     0.957060000000     0.332160000000    -0.250948   
O54      O      0.911640000000     0.947830000000     0.332440000000    -0.251417   
O55      O      0.947230000000     0.000720000000     0.268710000000    -0.249781   
O56      O      0.959970000000     0.908070000000     0.267550000000    -0.250366   
O57      O      0.261550000000     0.194120000000     0.571040000000    -0.251622   
O58      O      0.226170000000     0.254610000000     0.517610000000    -0.246955   
O59      O      0.202650000000     0.253080000000     0.569260000000    -0.246512   
O60      O      0.177280000000     0.154970000000     0.531640000000    -0.247975   
O61      O      0.164850000000     0.200900000000     0.512780000000    -0.255369   
O62      O      0.174500000000     0.208160000000     0.578360000000    -0.256668   
O63      O      0.246290000000     0.151630000000     0.549070000000    -0.246127   
O64      O      0.258560000000     0.211550000000     0.511100000000    -0.255105   
O65      O      0.055640000000     0.046840000000     0.329770000000    -0.267878   
O66      O      0.841230000000     0.707820000000     0.483450000000    -0.26963    
O67      O      0.376750000000     0.331030000000     0.312220000000    -0.267775   
O68      O      0.536660000000     0.550780000000     0.311590000000    -0.267627   
O69      O      0.904420000000     0.077890000000     0.250180000000    -0.269612   
O70      O      0.539200000000     0.418200000000     0.195380000000    -0.267755   
O71      O      0.352270000000     0.021130000000     0.746120000000    -0.269188   
O72      O      0.569830000000     0.841100000000     0.751930000000    -0.268603   
O73      O      0.557760000000     0.027810000000     0.810680000000    -0.268524   
O74      O      0.000540000000     0.831300000000     0.249860000000    -0.268904   
O75      O      0.322060000000     0.737030000000     0.988460000000    -0.268235   
O76      O      0.213550000000     0.669680000000     0.138330000000    -0.269614   
O77      O      0.206140000000     0.286290000000     0.626850000000    -0.268336   
O78      O      0.713420000000     0.259290000000     0.959190000000    -0.268661   
O79      O      0.840850000000     0.545280000000     0.776570000000    -0.270655   
O80      O      0.061990000000     0.552440000000     0.817650000000    -0.270148   


