data_structure

_audit_creation_method RASPA-1.0
_audit_creation_date 2023-6-5
_audit_author_name 'Poobodin Mano'

_cell_length_a    56.2466
_cell_length_b    57.7416
_cell_length_c    30.5239
_cell_angle_alpha 90.0331
_cell_angle_beta  89.9133
_cell_angle_gamma 89.9999
_cell_volume      99134.4

_symmetry_cell_setting          triclinic
_symmetry_space_group_name_Hall 'P 1'
_symmetry_space_group_name_H-M  'P 1'
_symmetry_Int_Tables_number     1

_symmetry_equiv_pos_as_xyz 'x,y,z'

loop_
_atom_site_label
_atom_site_type_symbol
_atom_site_fract_x
_atom_site_fract_y
_atom_site_fract_z
_atom_site_charge
C1       C      0.389570000000     0.328220000000     0.972740000000     0.339208   
C2       C      0.315420000000     0.308870000000     0.047800000000     0.339426   
C3       C      0.331340000000     0.381490000000     0.978610000000     0.338846   
C4       C      0.315000000000     0.307680000000     0.904560000000     0.339015   
C5       C      0.331150000000     0.623480000000     0.996100000000     0.340421   
C6       C      0.316460000000     0.686940000000     0.079250000000     0.340171   
C7       C      0.386810000000     0.678770000000     0.982520000000     0.337097   
C8       C      0.310470000000     0.699980000000     0.931490000000     0.339016   
C9       C      0.636910000000     0.316190000000     0.978310000000     0.337563   
C10      C      0.714730000000     0.299000000000     0.932350000000     0.339114   
C11      C      0.686150000000     0.376210000000     0.987040000000     0.340387   
C12      C      0.707210000000     0.312360000000     0.075470000000     0.338161   
C13      C      0.684090000000     0.618990000000     0.973020000000     0.340149   
C14      C      0.710180000000     0.692540000000     0.899890000000     0.341006   
C15      C      0.634720000000     0.677500000000     0.956080000000     0.338854   
C16      C      0.706160000000     0.685330000000     0.049900000000     0.336791   
C17      C      0.819790000000     0.189390000000     0.573150000000     0.339059   
C18      C      0.832920000000     0.122010000000     0.485530000000     0.339379   
C19      C      0.815360000000     0.200200000000     0.427830000000     0.338245   
C20      C      0.890200000000     0.172770000000     0.485960000000     0.33761    
C21      C      0.808180000000     0.804330000000     0.535390000000     0.340377   
C22      C      0.883990000000     0.825070000000     0.474840000000     0.34075    
C23      C      0.814360000000     0.807700000000     0.390300000000     0.339861   
C24      C      0.827340000000     0.879650000000     0.472940000000     0.34066    
C25      C      0.132450000000     0.821200000000     0.488340000000     0.338757   
C26      C      0.208650000000     0.803650000000     0.427070000000     0.34089    
C27      C      0.187490000000     0.878350000000     0.493510000000     0.342358   
C28      C      0.203210000000     0.809640000000     0.574310000000     0.340564   
C29      C      0.210690000000     0.189820000000     0.398000000000     0.339094   
C30      C      0.201050000000     0.119480000000     0.482050000000     0.339512   
C31      C      0.211430000000     0.195060000000     0.545720000000     0.340534   
C32      C      0.139400000000     0.167120000000     0.474030000000     0.339787   
C33      C      0.205300000000     0.937690000000     0.456100000000    -0.0260788  
C34      C      0.195160000000     0.059710000000     0.521890000000    -0.0285803  
C35      C      0.217220000000     0.083880000000     0.448490000000    -0.0107393  
C36      C      0.204250000000     0.084460000000     0.528010000000    -0.010544   
C37      C      0.222140000000     0.007580000000     0.498260000000    -0.0509821  
C38      C      0.177420000000     0.991100000000     0.473150000000    -0.0511929  
C39      C      0.204340000000     0.023330000000     0.486510000000     0.0637431  
C40      C      0.207630000000     0.059140000000     0.445530000000    -0.0283187  
C41      C      0.195190000000     0.975340000000     0.485120000000     0.0638399  
C42      C      0.190490000000     0.941270000000     0.529860000000    -0.00930765 
C43      C      0.217690000000     0.983790000000     0.497680000000    -0.054464   
C44      C      0.180920000000     0.916260000000     0.530560000000    -0.0556918  
C45      C      0.195730000000     0.913140000000     0.450870000000    -0.0114778  
C46      C      0.181870000000     0.014920000000     0.473820000000    -0.0542669  
C47      C      0.187190000000     0.905830000000     0.574550000000     0.317158   
C48      C      0.948090000000     0.824770000000     0.441020000000    -0.0256264  
C49      C      0.070040000000     0.812250000000     0.523260000000    -0.0283588  
C50      C      0.096370000000     0.821380000000     0.442660000000    -0.0106407  
C51      C      0.095890000000     0.804270000000     0.519380000000    -0.0107575  
C52      C      0.018450000000     0.797980000000     0.467050000000    -0.0509272  
C53      C      0.998720000000     0.839020000000     0.499520000000    -0.0510111  
C54      C      0.033450000000     0.815610000000     0.482090000000     0.0638063  
C55      C      0.070510000000     0.828630000000     0.450020000000    -0.0284411  
C56      C      0.983700000000     0.821420000000     0.484310000000     0.0641008  
C57      C      0.946000000000     0.808410000000     0.513440000000    -0.00890074 
C58      C      0.993790000000     0.800780000000     0.468080000000    -0.0544161  
C59      C      0.919650000000     0.815130000000     0.519300000000    -0.0562158  
C60      C      0.922630000000     0.833710000000     0.442680000000    -0.0119764  
C61      C      0.023410000000     0.836220000000     0.498470000000    -0.0541882  
C62      C      0.906870000000     0.794740000000     0.539770000000     0.317273   
C63      C      0.821630000000     0.940570000000     0.433950000000    -0.0259874  
C64      C      0.831580000000     0.059430000000     0.517240000000    -0.0283304  
C65      C      0.825780000000     0.087990000000     0.439020000000    -0.0103912  
C66      C      0.841640000000     0.084000000000     0.517360000000    -0.0102544  
C67      C      0.846590000000     0.010720000000     0.458350000000    -0.051344   
C68      C      0.803360000000     0.991640000000     0.485790000000    -0.0511585  
C69      C      0.828130000000     0.025390000000     0.471630000000     0.0636833  
C70      C      0.816700000000     0.063100000000     0.443330000000    -0.0282919  
C71      C      0.821970000000     0.976940000000     0.473090000000     0.063512   
C72      C      0.834590000000     0.941960000000     0.509260000000    -0.00936319 
C73      C      0.843630000000     0.986720000000     0.459020000000    -0.0544923  
C74      C      0.828570000000     0.916240000000     0.517000000000    -0.0567153  
C75      C      0.813880000000     0.915320000000     0.437710000000    -0.0127087  
C76      C      0.806340000000     0.015690000000     0.485090000000    -0.054417   
C77      C      0.847940000000     0.906120000000     0.545640000000     0.31701    
C78      C      0.076420000000     0.170190000000     0.514300000000    -0.025587   
C79      C      0.952040000000     0.169120000000     0.440550000000    -0.02823    
C80      C      0.928210000000     0.175200000000     0.524900000000    -0.0109125  
C81      C      0.926010000000     0.161800000000     0.444900000000    -0.0107847  
C82      C      0.003570000000     0.149120000000     0.491130000000    -0.0512524  
C83      C      0.025560000000     0.189810000000     0.462390000000    -0.0511386  
C84      C      0.989590000000     0.168160000000     0.479300000000     0.0636435  
C85      C      0.954050000000     0.181870000000     0.515890000000    -0.0280159  
C86      C      0.039560000000     0.170740000000     0.474180000000     0.0638523  
C87      C      0.075290000000     0.155940000000     0.440220000000    -0.00843948 
C88      C      0.028330000000     0.150320000000     0.488710000000    -0.0546625  
C89      C      0.101930000000     0.160810000000     0.432510000000    -0.0571002  
C90      C      0.102470000000     0.177260000000     0.511140000000    -0.0122087  
C91      C      0.000760000000     0.188620000000     0.464960000000    -0.0543196  
C92      C      0.112470000000     0.140070000000     0.409130000000     0.316832   
C93      C      0.720780000000     0.735280000000     0.810750000000    -0.0261723  
C94      C      0.797400000000     0.760430000000     0.621600000000    -0.0285217  
C95      C      0.774240000000     0.801590000000     0.586290000000    -0.0102777  
C96      C      0.801920000000     0.767350000000     0.573950000000    -0.0101024  
C97      C      0.747120000000     0.742940000000     0.678050000000    -0.0511479  
C98      C      0.771340000000     0.753760000000     0.755360000000    -0.0506314  
C99      C      0.766470000000     0.758150000000     0.676590000000     0.0641714  
C100     C      0.770990000000     0.793090000000     0.633390000000    -0.0284382  
C101     C      0.751980000000     0.738510000000     0.756830000000     0.063787   
C102     C      0.747760000000     0.703340000000     0.798940000000    -0.00966928 
C103     C      0.739870000000     0.733160000000     0.717710000000    -0.0542361  
C104     C      0.743560000000     0.693610000000     0.845360000000    -0.056125   
C105     C      0.715930000000     0.728150000000     0.858010000000    -0.012265   
C106     C      0.778590000000     0.763550000000     0.715630000000    -0.0542635  
C107     C      0.742950000000     0.667440000000     0.841940000000     0.317015   
C108     C      0.769140000000     0.782820000000     0.314920000000    -0.0260135  
C109     C      0.752870000000     0.705830000000     0.125190000000    -0.0283246  
C110     C      0.701080000000     0.704210000000     0.121820000000    -0.0111208  
C111     C      0.740540000000     0.686270000000     0.100100000000    -0.0112809  
C112     C      0.752860000000     0.722880000000     0.234610000000    -0.0513105  
C113     C      0.769820000000     0.765830000000     0.205980000000    -0.0513131  
C114     C      0.749830000000     0.729320000000     0.190760000000     0.0636186  
C115     C      0.715030000000     0.723080000000     0.145770000000    -0.0283005  
C116     C      0.772870000000     0.759390000000     0.249850000000     0.0636927  
C117     C      0.806870000000     0.765250000000     0.296830000000    -0.00951852 
C118     C      0.764240000000     0.737730000000     0.264010000000    -0.0545388  
C119     C      0.820930000000     0.783520000000     0.323010000000    -0.0568452  
C120     C      0.780940000000     0.802520000000     0.340110000000    -0.0127645  
C121     C      0.758370000000     0.750990000000     0.176570000000    -0.0543464  
C122     C      0.841420000000     0.771250000000     0.345270000000     0.317733   
C123     C      0.812110000000     0.227610000000     0.671840000000    -0.0259518  
C124     C      0.728920000000     0.253810000000     0.850760000000    -0.0285601  
C125     C      0.751180000000     0.294990000000     0.887950000000    -0.0110861  
C126     C      0.722710000000     0.261250000000     0.897500000000    -0.0104962  
C127     C      0.780780000000     0.235360000000     0.800600000000    -0.0513097  
C128     C      0.759690000000     0.246490000000     0.720410000000    -0.0509871  
C129     C      0.761670000000     0.250890000000     0.799620000000     0.0638357  
C130     C      0.756190000000     0.286100000000     0.841620000000    -0.0281436  
C131     C      0.778850000000     0.231010000000     0.721360000000     0.0637332  
C132     C      0.784500000000     0.196040000000     0.679080000000    -0.00838384 
C133     C      0.789350000000     0.225460000000     0.761910000000    -0.0544911  
C134     C      0.789740000000     0.186760000000     0.632670000000    -0.0570091  
C135     C      0.818370000000     0.221560000000     0.624620000000    -0.0115484  
C136     C      0.751100000000     0.256390000000     0.759130000000    -0.0543479  
C137     C      0.792660000000     0.160750000000     0.635610000000     0.31702    
C138     C      0.715020000000     0.281270000000     0.182940000000    -0.0258095  
C139     C      0.806820000000     0.242160000000     0.336960000000    -0.02842    
C140     C      0.778110000000     0.211270000000     0.391150000000    -0.0110906  
C141     C      0.815640000000     0.235530000000     0.382660000000    -0.0108648  
C142     C      0.757300000000     0.272290000000     0.299910000000    -0.0512742  
C143     C      0.765460000000     0.252330000000     0.217750000000    -0.0512898  
C144     C      0.771230000000     0.252260000000     0.296750000000     0.063526   
C145     C      0.771090000000     0.219010000000     0.345040000000    -0.0282342  
C146     C      0.751410000000     0.272300000000     0.220940000000     0.0637371  
C147     C      0.749350000000     0.305360000000     0.172410000000    -0.00792827 
C148     C      0.747430000000     0.282280000000     0.262440000000    -0.0546918  
C149     C      0.741470000000     0.313130000000     0.126320000000    -0.0570159  
C150     C      0.705210000000     0.285900000000     0.137280000000    -0.0110303  
C151     C      0.775320000000     0.242330000000     0.255260000000    -0.0544218  
C152     C      0.743690000000     0.339200000000     0.123590000000     0.316423   
C153     C      0.675450000000     0.438070000000     0.018730000000    -0.0255912  
C154     C      0.692410000000     0.557260000000     0.940240000000    -0.028328   
C155     C      0.673060000000     0.583800000000     0.013520000000    -0.0106685  
C156     C      0.684360000000     0.582220000000     0.932480000000    -0.0106137  
C157     C      0.662060000000     0.507490000000     0.970260000000    -0.0512623  
C158     C      0.706230000000     0.488240000000     0.991170000000    -0.0508373  
C159     C      0.681430000000     0.522090000000     0.978320000000     0.06384    
C160     C      0.681740000000     0.558760000000     0.017060000000    -0.0283062  
C161     C      0.686870000000     0.473610000000     0.982910000000     0.0638201  
C162     C      0.686200000000     0.437700000000     0.942350000000    -0.00862889 
C163     C      0.664660000000     0.483470000000     0.972520000000    -0.0543602  
C164     C      0.693630000000     0.412000000000     0.943540000000    -0.057051   
C165     C      0.683260000000     0.413060000000     0.025720000000    -0.0122743  
C166     C      0.703600000000     0.512300000000     0.988980000000    -0.0541667  
C167     C      0.684160000000     0.400520000000     0.902500000000     0.317474   
C168     C      0.214380000000     0.768920000000     0.667970000000    -0.0259245  
C169     C      0.296620000000     0.745760000000     0.850040000000    -0.028627   
C170     C      0.275840000000     0.702770000000     0.882620000000    -0.0109122  
C171     C      0.302460000000     0.737650000000     0.896540000000    -0.0107806  
C172     C      0.243570000000     0.761370000000     0.798600000000    -0.0511067  
C173     C      0.267360000000     0.754800000000     0.719040000000    -0.0512011  
C174     C      0.264400000000     0.748120000000     0.797570000000     0.06359    
C175     C      0.271420000000     0.712380000000     0.836720000000    -0.0282855  
C176     C      0.246530000000     0.768080000000     0.720080000000     0.0639219  
C177     C      0.237170000000     0.803430000000     0.681510000000    -0.00856147 
C178     C      0.234620000000     0.771270000000     0.760290000000    -0.0546602  
C179     C      0.231680000000     0.813660000000     0.636010000000    -0.0565258  
C180     C      0.208430000000     0.775890000000     0.621090000000    -0.0114282  
C181     C      0.276260000000     0.744810000000     0.757380000000    -0.0542574  
C182     C      0.225310000000     0.838920000000     0.642100000000     0.317841   
C183     C      0.219640000000     0.762190000000     0.334850000000    -0.025842   
C184     C      0.310730000000     0.719440000000     0.182460000000    -0.0282324  
C185     C      0.281870000000     0.688430000000     0.129020000000    -0.0107845  
C186     C      0.322780000000     0.700600000000     0.155000000000    -0.0110832  
C187     C      0.270970000000     0.718570000000     0.269210000000    -0.0513416  
C188     C      0.259800000000     0.764490000000     0.248630000000    -0.0512313  
C189     C      0.276120000000     0.727100000000     0.227340000000     0.0638099  
C190     C      0.271460000000     0.707740000000     0.157490000000    -0.0283246  
C191     C      0.254510000000     0.755920000000     0.290440000000     0.0637557  
C192     C      0.257850000000     0.775220000000     0.360450000000    -0.00898703 
C193     C      0.260280000000     0.732790000000     0.300600000000    -0.0544499  
C194     C      0.246850000000     0.794240000000     0.389620000000    -0.0564635  
C195     C      0.206230000000     0.780860000000     0.360060000000    -0.0119735  
C196     C      0.270530000000     0.750270000000     0.217240000000    -0.0543929  
C197     C      0.259860000000     0.794100000000     0.433020000000     0.316261   
C198     C      0.573780000000     0.695500000000     0.985920000000    -0.0261003  
C199     C      0.448430000000     0.670440000000     0.938060000000    -0.0281045  
C200     C      0.424380000000     0.695000000000     0.009200000000    -0.0110375  
C201     C      0.423410000000     0.662770000000     0.951160000000    -0.0108315  
C202     C      0.501790000000     0.668800000000     0.993840000000    -0.0514075  
C203     C      0.519660000000     0.699520000000     0.931100000000    -0.051568   
C204     C      0.486020000000     0.682280000000     0.969260000000     0.0637121  
C205     C      0.449370000000     0.700730000000     0.992630000000    -0.0278997  
C206     C      0.535440000000     0.685920000000     0.955530000000     0.0635507  
C207     C      0.570500000000     0.665970000000     0.929880000000    -0.00972476 
C208     C      0.526280000000     0.670540000000     0.987160000000    -0.0545917  
C209     C      0.596640000000     0.669110000000     0.915800000000    -0.0567013  
C210     C      0.599510000000     0.700720000000     0.973570000000    -0.0131394  
C211     C      0.495110000000     0.697780000000     0.937810000000    -0.0546496  
C212     C      0.606250000000     0.645540000000     0.903040000000     0.316347   
C213     C      0.249000000000     0.208080000000     0.643440000000    -0.0259939  
C214     C      0.275100000000     0.296300000000     0.809810000000    -0.0281586  
C215     C      0.310940000000     0.271950000000     0.861280000000    -0.0110416  
C216     C      0.280020000000     0.304170000000     0.856780000000    -0.0107976  
C217     C      0.252620000000     0.245450000000     0.766130000000    -0.0512824  
C218     C      0.271520000000     0.259340000000     0.685510000000    -0.0513655  
C219     C      0.270840000000     0.261950000000     0.765080000000     0.0637108  
C220     C      0.304480000000     0.265690000000     0.814090000000    -0.0280366  
C221     C      0.253320000000     0.242790000000     0.686560000000     0.063641   
C222     C      0.219720000000     0.238440000000     0.637980000000    -0.00927542 
C223     C      0.243890000000     0.235900000000     0.727320000000    -0.0544847  
C224     C      0.212200000000     0.230980000000     0.591480000000    -0.0565861  
C225     C      0.244330000000     0.199550000000     0.597000000000    -0.0122973  
C226     C      0.280270000000     0.268900000000     0.724390000000    -0.0545205  
C227     C      0.185390000000     0.232850000000     0.588760000000     0.316664   
C228     C      0.304320000000     0.264550000000     0.134820000000    -0.0255056  
C229     C      0.219260000000     0.231570000000     0.306700000000    -0.0280331  
C230     C      0.242680000000     0.190770000000     0.342970000000    -0.0108217  
C231     C      0.204560000000     0.214000000000     0.332620000000    -0.0111952  
C232     C      0.250300000000     0.228160000000     0.208980000000    -0.0512129  
C233     C      0.274350000000     0.268370000000     0.234390000000    -0.0509569  
C234     C      0.250940000000     0.234370000000     0.253290000000     0.0640215  
C235     C      0.255520000000     0.209480000000     0.316580000000    -0.0281622  
C236     C      0.273710000000     0.262160000000     0.190030000000     0.063956   
C237     C      0.268500000000     0.287100000000     0.127360000000    -0.0088441  
C238     C      0.261540000000     0.241880000000     0.177510000000    -0.0544014  
C239     C      0.280790000000     0.305450000000     0.098490000000    -0.0569292  
C240     C      0.319130000000     0.281780000000     0.108640000000    -0.0126179  
C241     C      0.263080000000     0.254630000000     0.265890000000    -0.0542814  
C242     C      0.263850000000     0.311710000000     0.061840000000     0.316948   
C243     C      0.451330000000     0.322650000000     0.927480000000    -0.0259314  
C244     C      0.573790000000     0.310470000000     0.006570000000    -0.0284633  
C245     C      0.602860000000     0.313010000000     0.927550000000    -0.0106888  
C246     C      0.599040000000     0.300700000000     0.006840000000    -0.0107876  
C247     C      0.522380000000     0.296230000000     0.952860000000    -0.0514823  
C248     C      0.505550000000     0.340550000000     0.973110000000    -0.0513676  
C249     C      0.538610000000     0.313980000000     0.961890000000     0.0635001  
C250     C      0.577350000000     0.322190000000     0.930260000000    -0.0285261  
C251     C      0.489310000000     0.322740000000     0.964480000000     0.0635187  
C252     C      0.453360000000     0.314920000000     0.004890000000    -0.00870153 
C253     C      0.497940000000     0.300470000000     0.954190000000    -0.0546675  
C254     C      0.427710000000     0.323240000000     0.013020000000    -0.0568892  
C255     C      0.426160000000     0.332380000000     0.930490000000    -0.0120791  
C256     C      0.530020000000     0.336280000000     0.971920000000    -0.054481   
C257     C      0.416100000000     0.306430000000     0.044550000000     0.317294   
C258     C      0.320550000000     0.563020000000     0.954960000000    -0.0258531  
C259     C      0.331120000000     0.441430000000     0.022280000000    -0.0279125  
C260     C      0.321380000000     0.417610000000     0.939900000000    -0.0110401  
C261     C      0.323130000000     0.416130000000     0.023180000000    -0.0113814  
C262     C      0.304010000000     0.492100000000     0.989290000000    -0.0512417  
C263     C      0.349240000000     0.512150000000     0.985790000000    -0.0512418  
C264     C      0.324080000000     0.477880000000     0.985640000000     0.0638609  
C265     C      0.329400000000     0.442870000000     0.942900000000    -0.0280529  
C266     C      0.329160000000     0.526390000000     0.989380000000     0.0636152  
C267     C      0.324470000000     0.560880000000     0.033300000000    -0.00850889 
C268     C      0.306440000000     0.516140000000     0.991200000000    -0.0543784  
C269     C      0.332020000000     0.586450000000     0.037390000000    -0.0567795  
C270     C      0.328880000000     0.588110000000     0.952920000000    -0.0115554  
C271     C      0.346800000000     0.488080000000     0.983970000000    -0.0545445  
C272     C      0.318440000000     0.597060000000     0.075270000000     0.316571   
Cd1      Cd     0.338340000000     0.332010000000     0.975210000000     0.510563   
Cd2      Cd     0.336280000000     0.673200000000     0.995890000000     0.508175   
Cd3      Cd     0.686590000000     0.326180000000     0.992820000000     0.510045   
Cd4      Cd     0.684820000000     0.669010000000     0.969550000000     0.510502   
Cd5      Cd     0.839010000000     0.171540000000     0.492030000000     0.5086     
Cd6      Cd     0.833000000000     0.829860000000     0.468130000000     0.512278   
Cd7      Cd     0.183080000000     0.828460000000     0.494860000000     0.512193   
Cd8      Cd     0.190790000000     0.168350000000     0.475120000000     0.510721   
H1       H      0.167790000000     0.026740000000     0.464740000000     0.0454791  
H2       H      0.205900000000     0.945930000000     0.423140000000     0.0396019  
H3       H      0.179300000000     0.951970000000     0.552230000000     0.0407943  
H4       H      0.236760000000     0.083090000000     0.453800000000     0.0455568  
H5       H      0.179370000000     0.913780000000     0.430480000000     0.0473136  
H6       H      0.196530000000     0.050520000000     0.553840000000     0.040254   
H7       H      0.218290000000     0.049520000000     0.420720000000     0.0396876  
H8       H      0.192180000000     0.093690000000     0.551020000000     0.0513899  
H9       H      0.160020000000     0.984870000000     0.463630000000     0.0501369  
H10      H      0.209100000000     0.902820000000     0.432360000000     0.0537521  
H11      H      0.239470000000     0.013820000000     0.508200000000     0.0500131  
H12      H      0.223800000000     0.936880000000     0.468970000000     0.0456293  
H13      H      0.214090000000     0.092710000000     0.416650000000     0.0512109  
H14      H      0.161200000000     0.917150000000     0.527790000000     0.0679983  
H15      H      0.176080000000     0.060240000000     0.512240000000     0.0435753  
H16      H      0.188830000000     0.059660000000     0.434210000000     0.0428785  
H17      H      0.231720000000     0.972050000000     0.507330000000     0.0473402  
H18      H      0.209060000000     0.941740000000     0.542670000000     0.0481494  
H19      H      0.222150000000     0.083730000000     0.543380000000     0.0457019  
H20      H      0.214430000000     0.893500000000     0.611360000000     0.196837   
H21      H      0.034620000000     0.850120000000     0.510210000000     0.0459028  
H22      H      0.958490000000     0.836210000000     0.418730000000     0.0399635  
H23      H      0.954540000000     0.808090000000     0.546350000000     0.0413315  
H24      H      0.096600000000     0.805170000000     0.423000000000     0.0461277  
H25      H      0.923030000000     0.852740000000     0.448390000000     0.0491797  
H26      H      0.060510000000     0.800170000000     0.545640000000     0.04061    
H27      H      0.061330000000     0.828790000000     0.417740000000     0.0394793  
H28      H      0.104620000000     0.806350000000     0.551810000000     0.0523195  
H29      H      0.991230000000     0.854990000000     0.512030000000     0.0507139  
H30      H      0.914440000000     0.830900000000     0.409940000000     0.0561899  
H31      H      0.025940000000     0.782060000000     0.454310000000     0.0500797  
H32      H      0.948210000000     0.806960000000     0.426920000000     0.0458064  
H33      H      0.105420000000     0.835040000000     0.423110000000     0.0499253  
H34      H      0.918900000000     0.829960000000     0.542620000000     0.0694597  
H35      H      0.069550000000     0.829880000000     0.538080000000     0.0437091  
H36      H      0.070050000000     0.846520000000     0.463650000000     0.0425823  
H37      H      0.982640000000     0.786910000000     0.456000000000     0.0470359  
H38      H      0.947410000000     0.790620000000     0.499400000000     0.0465726  
H39      H      0.096080000000     0.785510000000     0.511120000000     0.0466712  
H40      H      0.893220000000     0.762830000000     0.527390000000     0.188948   
H41      H      0.791830000000     0.026680000000     0.495640000000     0.0457301  
H42      H      0.810380000000     0.949130000000     0.408730000000     0.0389625  
H43      H      0.832620000000     0.951380000000     0.540940000000     0.0408752  
H44      H      0.842090000000     0.087930000000     0.418360000000     0.046375   
H45      H      0.794270000000     0.914790000000     0.442300000000     0.0472874  
H46      H      0.842520000000     0.048640000000     0.539740000000     0.0399331  
H47      H      0.816520000000     0.055070000000     0.410160000000     0.0391486  
H48      H      0.838240000000     0.091870000000     0.550060000000     0.0510401  
H49      H      0.786640000000     0.984400000000     0.496820000000     0.0502549  
H50      H      0.817890000000     0.906590000000     0.406060000000     0.0518318  
H51      H      0.863460000000     0.017950000000     0.448050000000     0.0494447  
H52      H      0.840450000000     0.941210000000     0.422600000000     0.0436333  
H53      H      0.812170000000     0.098440000000     0.421500000000     0.0497567  
H54      H      0.811430000000     0.915550000000     0.535260000000     0.0685398  
H55      H      0.813020000000     0.059710000000     0.530060000000     0.0431418  
H56      H      0.798120000000     0.063300000000     0.455990000000     0.0421243  
H57      H      0.858350000000     0.975820000000     0.449180000000     0.0459751  
H58      H      0.853490000000     0.943690000000     0.498620000000     0.0471718  
H59      H      0.861250000000     0.083040000000     0.512990000000     0.0459344  
H60      H      0.882520000000     0.895960000000     0.546540000000     0.188993   
H61      H      0.990340000000     0.203620000000     0.455870000000     0.0452224  
H62      H      0.067560000000     0.181660000000     0.538710000000     0.0393481  
H63      H      0.065920000000     0.157240000000     0.408180000000     0.0407803  
H64      H      0.927950000000     0.158780000000     0.543930000000     0.0472828  
H65      H      0.103460000000     0.196410000000     0.507650000000     0.0505461  
H66      H      0.960600000000     0.158070000000     0.415120000000     0.0394116  
H67      H      0.964170000000     0.180480000000     0.547110000000     0.0393493  
H68      H      0.916410000000     0.166870000000     0.414550000000     0.0490087  
H69      H      0.033930000000     0.205650000000     0.451270000000     0.0508887  
H70      H      0.111290000000     0.172770000000     0.542620000000     0.0522499  
H71      H      0.995200000000     0.133310000000     0.502400000000     0.0494398  
H72      H      0.075230000000     0.152040000000     0.526510000000     0.0432426  
H73      H      0.920000000000     0.188810000000     0.545840000000     0.0502313  
H74      H      0.103280000000     0.176120000000     0.410460000000     0.0702915  
H75      H      0.952910000000     0.187450000000     0.429270000000     0.0412445  
H76      H      0.954880000000     0.200230000000     0.504750000000     0.041465   
H77      H      0.038670000000     0.135350000000     0.498250000000     0.0457906  
H78      H      0.072810000000     0.137910000000     0.452530000000     0.0450355  
H79      H      0.925200000000     0.142590000000     0.447220000000     0.0458368  
H80      H      0.123960000000     0.107010000000     0.417520000000     0.185839   
H81      H      0.793610000000     0.775250000000     0.715360000000     0.0473235  
H82      H      0.718570000000     0.754390000000     0.808230000000     0.0391865  
H83      H      0.766100000000     0.698610000000     0.788390000000     0.0414197  
H84      H      0.758670000000     0.795910000000     0.566620000000     0.0458061  
H85      H      0.726930000000     0.739120000000     0.880040000000     0.0462033  
H86      H      0.799120000000     0.741270000000     0.624240000000     0.0410545  
H87      H      0.752970000000     0.798320000000     0.644840000000     0.0400791  
H88      H      0.820770000000     0.763470000000     0.565720000000     0.0535976  
H89      H      0.780830000000     0.758020000000     0.785130000000     0.0508439  
H90      H      0.696970000000     0.732010000000     0.865430000000     0.0517946  
H91      H      0.737650000000     0.738640000000     0.648270000000     0.0499844  
H92      H      0.707390000000     0.726950000000     0.788970000000     0.044825   
H93      H      0.774400000000     0.820850000000     0.586390000000     0.0524893  
H94      H      0.759070000000     0.698700000000     0.865840000000     0.0679759  
H95      H      0.811200000000     0.768480000000     0.642860000000     0.0459645  
H96      H      0.784390000000     0.801630000000     0.654830000000     0.0450313  
H97      H      0.724850000000     0.721450000000     0.717810000000     0.0469206  
H98      H      0.735090000000     0.695200000000     0.775440000000     0.0483713  
H99      H      0.790540000000     0.756480000000     0.552410000000     0.0463224  
H100     H      0.723460000000     0.640140000000     0.820210000000     0.191166   
H101     H      0.756140000000     0.756420000000     0.142900000000     0.0452539  
H102     H      0.752020000000     0.789320000000     0.301380000000     0.0386595  
H103     H      0.818250000000     0.759000000000     0.269340000000     0.0409545  
H104     H      0.695280000000     0.691020000000     0.146140000000     0.0456247  
H105     H      0.781710000000     0.818040000000     0.318590000000     0.0472816  
H106     H      0.770090000000     0.699170000000     0.137970000000     0.0404274  
H107     H      0.704100000000     0.729320000000     0.173830000000     0.0390294  
H108     H      0.751380000000     0.681910000000     0.070750000000     0.0514527  
H109     H      0.776320000000     0.782430000000     0.194610000000     0.0500472  
H110     H      0.769370000000     0.806950000000     0.368490000000     0.051284   
H111     H      0.746300000000     0.706310000000     0.246000000000     0.0495431  
H112     H      0.765110000000     0.768380000000     0.337940000000     0.0434526  
H113     H      0.684830000000     0.712090000000     0.107450000000     0.0507274  
H114     H      0.828300000000     0.796180000000     0.299040000000     0.06837    
H115     H      0.756710000000     0.720340000000     0.102220000000     0.0426869  
H116     H      0.718070000000     0.737910000000     0.123140000000     0.0423465  
H117     H      0.766270000000     0.732300000000     0.297720000000     0.0461558  
H118     H      0.802790000000     0.750100000000     0.318190000000     0.0476314  
H119     H      0.739940000000     0.670660000000     0.121390000000     0.0460695  
H120     H      0.849940000000     0.748530000000     0.393560000000     0.190948   
H121     H      0.736290000000     0.268320000000     0.757500000000     0.045946   
H122     H      0.814710000000     0.246580000000     0.676390000000     0.039181   
H123     H      0.765900000000     0.191280000000     0.687910000000     0.0405184  
H124     H      0.765720000000     0.289080000000     0.909900000000     0.0469081  
H125     H      0.809710000000     0.234350000000     0.602570000000     0.0473663  
H126     H      0.727100000000     0.234650000000     0.848500000000     0.0395811  
H127     H      0.774690000000     0.291000000000     0.832560000000     0.040798   
H128     H      0.703600000000     0.257460000000     0.903570000000     0.0496883  
H129     H      0.751430000000     0.250920000000     0.689500000000     0.0503393  
H130     H      0.837910000000     0.223620000000     0.620330000000     0.0518416  
H131     H      0.789060000000     0.230960000000     0.831500000000     0.0495968  
H132     H      0.824520000000     0.218450000000     0.694360000000     0.0434286  
H133     H      0.751490000000     0.314250000000     0.887480000000     0.0546353  
H134     H      0.773930000000     0.190550000000     0.611930000000     0.0689549  
H135     H      0.716040000000     0.261800000000     0.827560000000     0.0430443  
H136     H      0.743820000000     0.294690000000     0.818250000000     0.0444057  
H137     H      0.804170000000     0.213550000000     0.763650000000     0.0459839  
H138     H      0.796480000000     0.187620000000     0.703440000000     0.0451174  
H139     H      0.733290000000     0.250620000000     0.920770000000     0.0448762  
H140     H      0.815410000000     0.135090000000     0.653270000000     0.187697   
H141     H      0.785990000000     0.226830000000     0.251940000000     0.0450319  
H142     H      0.708610000000     0.263930000000     0.193770000000     0.0386891  
H143     H      0.769140000000     0.305980000000     0.173820000000     0.0406537  
H144     H      0.768120000000     0.221880000000     0.415380000000     0.0457615  
H145     H      0.707330000000     0.269920000000     0.117240000000     0.0483329  
H146     H      0.813770000000     0.259700000000     0.328890000000     0.0397765  
H147     H      0.751330000000     0.219240000000     0.342970000000     0.0392739  
H148     H      0.835290000000     0.233450000000     0.381410000000     0.0498281  
H149     H      0.768630000000     0.244440000000     0.186090000000     0.0501135  
H150     H      0.685770000000     0.289200000000     0.140030000000     0.0515506  
H151     H      0.753980000000     0.280080000000     0.331620000000     0.0494647  
H152     H      0.707850000000     0.294410000000     0.206220000000     0.0430685  
H153     H      0.772570000000     0.192930000000     0.395610000000     0.0507502  
H154     H      0.754060000000     0.305350000000     0.102240000000     0.0694726  
H155     H      0.814080000000     0.229680000000     0.312520000000     0.0421     
H156     H      0.777880000000     0.206220000000     0.320740000000     0.0420577  
H157     H      0.736590000000     0.297650000000     0.265900000000     0.0459244  
H158     H      0.742510000000     0.317610000000     0.197750000000     0.0442631  
H159     H      0.811670000000     0.250010000000     0.405570000000     0.0456169  
H160     H      0.727740000000     0.369540000000     0.140130000000     0.187028   
H161     H      0.718840000000     0.523220000000     0.995410000000     0.0460553  
H162     H      0.677400000000     0.447500000000     0.050360000000     0.0391117  
H163     H      0.696870000000     0.446590000000     0.916570000000     0.0413876  
H164     H      0.653310000000     0.583780000000     0.012080000000     0.0470069  
H165     H      0.700710000000     0.413070000000     0.042830000000     0.0499263  
H166     H      0.690180000000     0.547430000000     0.909130000000     0.0410724  
H167     H      0.671510000000     0.550030000000     0.043590000000     0.0392832  
H168     H      0.697030000000     0.590610000000     0.909430000000     0.0532123  
H169     H      0.723410000000     0.480930000000     0.999200000000     0.0514055  
H170     H      0.670230000000     0.404610000000     0.048050000000     0.0517221  
H171     H      0.644900000000     0.514790000000     0.962070000000     0.0496831  
H172     H      0.656300000000     0.438370000000     0.009460000000     0.0428153  
H173     H      0.678310000000     0.593250000000     0.043760000000     0.0496479  
H174     H      0.713420000000     0.411350000000     0.942620000000     0.0710162  
H175     H      0.711640000000     0.557140000000     0.948930000000     0.0434509  
H176     H      0.700880000000     0.558650000000     0.026370000000     0.0421974  
H177     H      0.649370000000     0.472620000000     0.966020000000     0.0456963  
H178     H      0.667100000000     0.439210000000     0.932960000000     0.0456168  
H179     H      0.666650000000     0.581930000000     0.916310000000     0.0479079  
H180     H      0.654300000000     0.388080000000     0.873440000000     0.188009   
H181     H      0.292290000000     0.734480000000     0.755650000000     0.045175   
H182     H      0.214350000000     0.749660000000     0.669860000000     0.0391573  
H183     H      0.254750000000     0.810190000000     0.692450000000     0.0415214  
H184     H      0.260400000000     0.707270000000     0.903800000000     0.0460263  
H185     H      0.219450000000     0.765340000000     0.598280000000     0.0487821  
H186     H      0.297430000000     0.765010000000     0.849300000000     0.0397731  
H187     H      0.253460000000     0.706690000000     0.825860000000     0.0393361  
H188     H      0.321350000000     0.741890000000     0.903680000000     0.0490249  
H189     H      0.276670000000     0.752140000000     0.688360000000     0.050541   
H190     H      0.189530000000     0.771320000000     0.614670000000     0.0525298  
H191     H      0.234190000000     0.763930000000     0.829240000000     0.0495793  
H192     H      0.200300000000     0.775520000000     0.690460000000     0.0440034  
H193     H      0.276760000000     0.683560000000     0.880540000000     0.0508443  
H194     H      0.248260000000     0.812640000000     0.616080000000     0.0712531  
H195     H      0.310300000000     0.738930000000     0.827010000000     0.0418575  
H196     H      0.284800000000     0.705050000000     0.813610000000     0.0421958  
H197     H      0.218430000000     0.781340000000     0.762060000000     0.0464452  
H198     H      0.223630000000     0.809350000000     0.705800000000     0.0456968  
H199     H      0.291250000000     0.747530000000     0.920070000000     0.0451708  
H200     H      0.198970000000     0.860830000000     0.661130000000     0.1911     
H201     H      0.274350000000     0.757290000000     0.185120000000     0.0451632  
H202     H      0.208990000000     0.757500000000     0.305420000000     0.0388154  
H203     H      0.275890000000     0.781010000000     0.350020000000     0.0411014  
H204     H      0.280500000000     0.671810000000     0.147230000000     0.046884   
H205     H      0.200690000000     0.794600000000     0.336690000000     0.0479237  
H206     H      0.321860000000     0.722760000000     0.211930000000     0.0402511  
H207     H      0.253390000000     0.702380000000     0.168400000000     0.0393895  
H208     H      0.340040000000     0.707380000000     0.142690000000     0.051597   
H209     H      0.255480000000     0.782230000000     0.240340000000     0.0502421  
H210     H      0.189700000000     0.773000000000     0.373520000000     0.0513128  
H211     H      0.275190000000     0.700800000000     0.277420000000     0.0501499  
H212     H      0.221280000000     0.746450000000     0.355740000000     0.0433317  
H213     H      0.270950000000     0.686800000000     0.098840000000     0.0502076  
H214     H      0.250090000000     0.811210000000     0.373310000000     0.0697024  
H215     H      0.309810000000     0.735720000000     0.162980000000     0.0426152  
H216     H      0.269680000000     0.723760000000     0.137440000000     0.0420745  
H217     H      0.256400000000     0.725690000000     0.332620000000     0.0461116  
H218     H      0.260060000000     0.758910000000     0.379580000000     0.0458532  
H219     H      0.326630000000     0.685540000000     0.176530000000     0.0486682  
H220     H      0.263360000000     0.776870000000     0.490660000000     0.187613   
H221     H      0.483260000000     0.708360000000     0.918380000000     0.0446736  
H222     H      0.565650000000     0.711610000000     0.999300000000     0.0387898  
H223     H      0.560030000000     0.660300000000     0.900820000000     0.0403295  
H224     H      0.425910000000     0.685770000000     0.041050000000     0.0484751  
H225     H      0.599760000000     0.716040000000     0.951510000000     0.046504   
H226     H      0.458050000000     0.655170000000     0.924550000000     0.0392693  
H227     H      0.459720000000     0.708270000000     0.020250000000     0.0391543  
H228     H      0.413150000000     0.658880000000     0.920890000000     0.0483775  
H229     H      0.526420000000     0.711390000000     0.906620000000     0.0495814  
H230     H      0.609210000000     0.705590000000     0.003930000000     0.0524369  
H231     H      0.495020000000     0.656800000000     0.018090000000     0.0499965  
H232     H      0.573540000000     0.682100000000     0.012150000000     0.0440831  
H233     H      0.414730000000     0.711480000000     0.015580000000     0.0495152  
H234     H      0.596720000000     0.680470000000     0.886310000000     0.0675864  
H235     H      0.447260000000     0.683760000000     0.911760000000     0.0406888  
H236     H      0.448220000000     0.714010000000     0.966260000000     0.0405322  
H237     H      0.538010000000     0.659770000000     0.006470000000     0.0461968  
H238     H      0.569240000000     0.652070000000     0.955120000000     0.0481344  
H239     H      0.424730000000     0.646360000000     0.970080000000     0.0470948  
H240     H      0.615350000000     0.613830000000     0.926500000000     0.186586   
H241     H      0.294360000000     0.281630000000     0.722730000000     0.0450096  
H242     H      0.267800000000     0.204020000000     0.651890000000     0.0387222  
H243     H      0.216730000000     0.257440000000     0.641280000000     0.0408143  
H244     H      0.302000000000     0.259540000000     0.883740000000     0.0472104  
H245     H      0.258660000000     0.206160000000     0.575190000000     0.0465372  
H246     H      0.256230000000     0.300360000000     0.801910000000     0.0400243  
H247     H      0.307610000000     0.246810000000     0.809360000000     0.039226   
H248     H      0.278980000000     0.323400000000     0.858040000000     0.0509082  
H249     H      0.278960000000     0.264800000000     0.654450000000     0.0497784  
H250     H      0.245650000000     0.180320000000     0.597060000000     0.0517912  
H251     H      0.245220000000     0.239950000000     0.797200000000     0.0499189  
H252     H      0.237260000000     0.198530000000     0.666660000000     0.0439313  
H253     H      0.330460000000     0.269780000000     0.865530000000     0.0505089  
H254     H      0.220180000000     0.243500000000     0.567930000000     0.0676979  
H255     H      0.286660000000     0.306220000000     0.786860000000     0.042036   
H256     H      0.316350000000     0.275280000000     0.791170000000     0.0416735  
H257     H      0.229850000000     0.223120000000     0.729160000000     0.046288   
H258     H      0.208350000000     0.229620000000     0.662860000000     0.0467761  
H259     H      0.265800000000     0.297250000000     0.878470000000     0.0469023  
H260     H      0.154380000000     0.217890000000     0.607950000000     0.188624   
H261     H      0.263810000000     0.259800000000     0.299950000000     0.0455569  
H262     H      0.316270000000     0.255570000000     0.158400000000     0.0395523  
H263     H      0.253750000000     0.295640000000     0.145670000000     0.0411955  
H264     H      0.239220000000     0.175700000000     0.321180000000     0.0475306  
H265     H      0.329920000000     0.292270000000     0.131840000000     0.0513519  
H266     H      0.207460000000     0.239940000000     0.282110000000     0.0409179  
H267     H      0.270860000000     0.201340000000     0.299370000000     0.039327   
H268     H      0.191110000000     0.223530000000     0.352370000000     0.0525898  
H269     H      0.283600000000     0.283930000000     0.244500000000     0.0509226  
H270     H      0.331810000000     0.271830000000     0.087880000000     0.0530115  
H271     H      0.241010000000     0.212630000000     0.198860000000     0.0502286  
H272     H      0.296870000000     0.251280000000     0.112130000000     0.0431985  
H273     H      0.254660000000     0.184790000000     0.369620000000     0.0498389  
H274     H      0.283770000000     0.321110000000     0.119090000000     0.0699401  
H275     H      0.225910000000     0.245240000000     0.329360000000     0.0428218  
H276     H      0.262570000000     0.222890000000     0.339370000000     0.0417282  
H277     H      0.260700000000     0.236670000000     0.143490000000     0.0460872  
H278     H      0.260480000000     0.273340000000     0.106400000000     0.0460992  
H279     H      0.194800000000     0.202770000000     0.309130000000     0.0494887  
H280     H      0.249810000000     0.300490000000     0.004320000000     0.187411   
H281     H      0.542170000000     0.350260000000     0.979380000000     0.0453725  
H282     H      0.460470000000     0.331020000000     0.899230000000     0.0385347  
H283     H      0.463850000000     0.317950000000     0.035320000000     0.0404465  
H284     H      0.602480000000     0.295500000000     0.912370000000     0.0449702  
H285     H      0.427110000000     0.351590000000     0.928400000000     0.0463744  
H286     H      0.562880000000     0.300370000000     0.030300000000     0.03979    
H287     H      0.569100000000     0.320740000000     0.897250000000     0.0392669  
H288     H      0.606900000000     0.303600000000     0.039790000000     0.0513619  
H289     H      0.499200000000     0.357710000000     0.981370000000     0.0498119  
H290     H      0.416030000000     0.326300000000     0.901390000000     0.0512024  
H291     H      0.528740000000     0.278970000000     0.945380000000     0.049168   
H292     H      0.450370000000     0.303690000000     0.920900000000     0.043123   
H293     H      0.613360000000     0.324540000000     0.905680000000     0.0504914  
H294     H      0.428700000000     0.340540000000     0.029060000000     0.0682736  
H295     H      0.574210000000     0.328840000000     0.017690000000     0.0434504  
H296     H      0.577810000000     0.340840000000     0.939570000000     0.0429194  
H297     H      0.485830000000     0.286320000000     0.947760000000     0.0457901  
H298     H      0.453560000000     0.295910000000     0.998240000000     0.0460309  
H299     H      0.598080000000     0.281680000000     0.001360000000     0.0452498  
H300     H      0.401560000000     0.274340000000     0.049810000000     0.188399   
H301     H      0.362590000000     0.477460000000     0.981320000000     0.0448935  
H302     H      0.325100000000     0.554520000000     0.923280000000     0.0387143  
H303     H      0.332620000000     0.551040000000     0.060850000000     0.0407334  
H304     H      0.301810000000     0.417220000000     0.934780000000     0.0478067  
H305     H      0.347310000000     0.588480000000     0.939660000000     0.0479528  
H306     H      0.325010000000     0.449920000000     0.053060000000     0.0406453  
H307     H      0.321980000000     0.452440000000     0.914370000000     0.0392657  
H308     H      0.332760000000     0.407090000000     0.049980000000     0.0521276  
H309     H      0.366810000000     0.519780000000     0.984470000000     0.0498235  
H310     H      0.317470000000     0.597530000000     0.929110000000     0.05179    
H311     H      0.286440000000     0.484470000000     0.990730000000     0.0504271  
H312     H      0.300840000000     0.562620000000     0.958730000000     0.0432627  
H313     H      0.329850000000     0.409570000000     0.910670000000     0.0499333  
H314     H      0.351330000000     0.586770000000     0.045450000000     0.0687447  
H315     H      0.350910000000     0.442170000000     0.021350000000     0.0421842  
H316     H      0.349160000000     0.443640000000     0.940860000000     0.0413028  
H317     H      0.290630000000     0.526710000000     0.994100000000     0.0461789  
H318     H      0.304780000000     0.559260000000     0.036570000000     0.0453745  
H319     H      0.303840000000     0.415540000000     0.031090000000     0.0497924  
H320     H      0.286390000000     0.610020000000     0.093810000000     0.186606   
N1       N      0.189800000000     0.902030000000     0.493180000000    -0.13924    
N2       N      0.189660000000     0.950890000000     0.485410000000    -0.114223   
N3       N      0.209550000000     0.047780000000     0.488500000000    -0.112714   
N4       N      0.206280000000     0.096440000000     0.485490000000    -0.152735   
N5       N      0.908240000000     0.822830000000     0.477720000000    -0.138464   
N6       N      0.958300000000     0.825140000000     0.485200000000    -0.114159   
N7       N      0.058840000000     0.812140000000     0.479770000000    -0.112525   
N8       N      0.108610000000     0.817030000000     0.484610000000    -0.152352   
N9       N      0.825200000000     0.903340000000     0.475110000000    -0.140177   
N10      N      0.818670000000     0.952160000000     0.476420000000    -0.114524   
N11      N      0.832450000000     0.050020000000     0.472580000000    -0.112415   
N12      N      0.831670000000     0.098440000000     0.481880000000    -0.152253   
N13      N      0.115000000000     0.166540000000     0.473570000000    -0.139122   
N14      N      0.065140000000     0.172660000000     0.471260000000    -0.11399    
N15      N      0.964090000000     0.166190000000     0.482830000000    -0.112477   
N16      N      0.914460000000     0.171740000000     0.484190000000    -0.152691   
N17      N      0.721850000000     0.703570000000     0.866250000000    -0.140169   
N18      N      0.745080000000     0.728640000000     0.798480000000    -0.114447   
N19      N      0.773410000000     0.767750000000     0.634840000000    -0.112506   
N20      N      0.796010000000     0.791930000000     0.566290000000    -0.151648   
N21      N      0.805410000000     0.796660000000     0.353970000000    -0.140187   
N22      N      0.784820000000     0.775190000000     0.279250000000    -0.11465    
N23      N      0.737680000000     0.713570000000     0.161660000000    -0.112771   
N24      N      0.715970000000     0.692730000000     0.088390000000    -0.15261    
N25      N      0.810660000000     0.198040000000     0.611550000000    -0.1394     
N26      N      0.787300000000     0.221280000000     0.680580000000    -0.11418    
N27      N      0.753440000000     0.260780000000     0.840340000000    -0.112675   
N28      N      0.728410000000     0.285900000000     0.904800000000    -0.152564   
N29      N      0.717110000000     0.305270000000     0.114270000000    -0.139049   
N30      N      0.741070000000     0.281770000000     0.181510000000    -0.113987   
N31      N      0.780680000000     0.242250000000     0.336390000000    -0.11265    
N32      N      0.803810000000     0.214390000000     0.399010000000    -0.153014   
N33      N      0.685800000000     0.399960000000     0.984280000000    -0.139235   
N34      N      0.690350000000     0.448820000000     0.984910000000    -0.113954   
N35      N      0.677970000000     0.546810000000     0.975150000000    -0.112481   
N36      N      0.682300000000     0.595380000000     0.973840000000    -0.152227   
N37      N      0.212870000000     0.800680000000     0.611940000000    -0.138644   
N38      N      0.237850000000     0.778050000000     0.679720000000    -0.114029   
N39      N      0.272700000000     0.737790000000     0.837780000000    -0.112646   
N40      N      0.297550000000     0.712710000000     0.902230000000    -0.153361   
N41      N      0.220640000000     0.791650000000     0.395090000000    -0.139977   
N42      N      0.243020000000     0.771050000000     0.321710000000    -0.11425    
N43      N      0.286850000000     0.711720000000     0.195700000000    -0.112541   
N44      N      0.307140000000     0.692890000000     0.119080000000    -0.152249   
N45      N      0.610750000000     0.681020000000     0.950490000000    -0.140312   
N46      N      0.560660000000     0.687770000000     0.946980000000    -0.114926   
N47      N      0.460850000000     0.679510000000     0.976680000000    -0.112297   
N48      N      0.410970000000     0.680150000000     0.978440000000    -0.152585   
N49      N      0.221150000000     0.207480000000     0.579670000000    -0.140106   
N50      N      0.244900000000     0.233150000000     0.645710000000    -0.114555   
N51      N      0.279380000000     0.271280000000     0.806010000000    -0.112527   
N52      N      0.303200000000     0.295640000000     0.872730000000    -0.152484   
N53      N      0.304450000000     0.297690000000     0.081980000000    -0.139285   
N54      N      0.285420000000     0.276890000000     0.158400000000    -0.114147   
N55      N      0.239050000000     0.219690000000     0.284650000000    -0.11242    
N56      N      0.219730000000     0.199170000000     0.360370000000    -0.152202   
N57      N      0.413880000000     0.326070000000     0.971720000000    -0.139799   
N58      N      0.464170000000     0.327560000000     0.968250000000    -0.114516   
N59      N      0.563670000000     0.308560000000     0.962290000000    -0.112837   
N60      N      0.613460000000     0.311120000000     0.971590000000    -0.152615   
N61      N      0.328780000000     0.599830000000     0.996070000000    -0.139596   
N62      N      0.332430000000     0.551190000000     0.991340000000    -0.114245   
N63      N      0.320750000000     0.453110000000     0.984040000000    -0.112429   
N64      N      0.326950000000     0.404750000000     0.980400000000    -0.152285   
O1       O      0.335750000000     0.302850000000     0.034000000000    -0.242398   
O2       O      0.307580000000     0.327000000000     0.918590000000    -0.24689    
O3       O      0.377880000000     0.327680000000     0.008170000000    -0.236967   
O4       O      0.333790000000     0.369430000000     0.012930000000    -0.247431   
O5       O      0.332520000000     0.370650000000     0.942590000000    -0.248874   
O6       O      0.377450000000     0.331140000000     0.938210000000    -0.250034   
O7       O      0.306080000000     0.325970000000     0.028480000000    -0.237216   
O8       O      0.333550000000     0.299830000000     0.922680000000    -0.248943   
O9       O      0.303660000000     0.678940000000     0.048700000000    -0.250162   
O10      O      0.305260000000     0.679200000000     0.940330000000    -0.24815    
O11      O      0.335690000000     0.634800000000     0.030630000000    -0.241708   
O12      O      0.375420000000     0.691090000000     0.009730000000    -0.244909   
O13      O      0.374660000000     0.664380000000     0.960700000000    -0.253487   
O14      O      0.329340000000     0.635290000000     0.961280000000    -0.244098   
O15      O      0.338450000000     0.688740000000     0.071020000000    -0.244216   
O16      O      0.327940000000     0.708420000000     0.952140000000    -0.255487   
O17      O      0.696170000000     0.291040000000     0.950330000000    -0.253683   
O18      O      0.717730000000     0.326180000000     0.049730000000    -0.240407   
O19      O      0.650250000000     0.323420000000     0.947760000000    -0.248723   
O20      O      0.692480000000     0.363510000000     0.955300000000    -0.234722   
O21      O      0.680470000000     0.365650000000     0.021870000000    -0.249089   
O22      O      0.646640000000     0.313650000000     0.015370000000    -0.244613   
O23      O      0.720150000000     0.319650000000     0.942070000000    -0.243066   
O24      O      0.687160000000     0.305010000000     0.062770000000    -0.244643   
O25      O      0.716870000000     0.673200000000     0.914900000000    -0.234488   
O26      O      0.684630000000     0.689260000000     0.040450000000    -0.245475   
O27      O      0.689580000000     0.629870000000     0.938460000000    -0.240311   
O28      O      0.646660000000     0.664090000000     0.931760000000    -0.236971   
O29      O      0.646350000000     0.687640000000     0.985980000000    -0.243028   
O30      O      0.679520000000     0.631290000000     0.006340000000    -0.251689   
O31      O      0.692070000000     0.701270000000     0.918210000000    -0.253087   
O32      O      0.717940000000     0.673850000000     0.021940000000    -0.250085   
O33      O      0.840340000000     0.131730000000     0.520100000000    -0.248202   
O34      O      0.877350000000     0.167450000000     0.453430000000    -0.251602   
O35      O      0.836870000000     0.199160000000     0.553380000000    -0.247382   
O36      O      0.805100000000     0.183180000000     0.445880000000    -0.249629   
O37      O      0.836730000000     0.203710000000     0.438970000000    -0.252103   
O38      O      0.811440000000     0.171470000000     0.554870000000    -0.238359   
O39      O      0.827690000000     0.135330000000     0.454020000000    -0.248022   
O40      O      0.879280000000     0.178150000000     0.520830000000    -0.246222   
O41      O      0.870250000000     0.820220000000     0.506410000000    -0.233629   
O42      O      0.823950000000     0.868570000000     0.437670000000    -0.25005    
O43      O      0.802250000000     0.824750000000     0.524970000000    -0.246648   
O44      O      0.801300000000     0.819610000000     0.415560000000    -0.25048    
O45      O      0.836100000000     0.806820000000     0.400600000000    -0.234388   
O46      O      0.825720000000     0.795860000000     0.514870000000    -0.24332    
O47      O      0.874010000000     0.832520000000     0.440450000000    -0.242446   
O48      O      0.832610000000     0.867470000000     0.505930000000    -0.237627   
O49      O      0.186350000000     0.802050000000     0.431660000000    -0.250457   
O50      O      0.209070000000     0.829310000000     0.559560000000    -0.231794   
O51      O      0.144000000000     0.815720000000     0.522370000000    -0.244372   
O52      O      0.194300000000     0.865920000000     0.461670000000    -0.247063   
O53      O      0.178150000000     0.867590000000     0.525270000000    -0.23666    
O54      O      0.144350000000     0.830280000000     0.457560000000    -0.25       
O55      O      0.219020000000     0.817210000000     0.453390000000    -0.237311   
O56      O      0.188150000000     0.798520000000     0.551760000000    -0.244647   
O57      O      0.204100000000     0.130550000000     0.446710000000    -0.246733   
O58      O      0.150950000000     0.173010000000     0.507860000000    -0.244082   
O59      O      0.222230000000     0.175250000000     0.420480000000    -0.249125   
O60      O      0.219350000000     0.175370000000     0.534760000000    -0.250175   
O61      O      0.194270000000     0.202590000000     0.523080000000    -0.237971   
O62      O      0.190030000000     0.194720000000     0.411680000000    -0.246092   
O63      O      0.193190000000     0.131070000000     0.514180000000    -0.247868   
O64      O      0.151770000000     0.162210000000     0.440630000000    -0.238155   
O65      O      0.209890000000     0.899750000000     0.583200000000    -0.325777   
O66      O      0.171840000000     0.903410000000     0.602590000000    -0.237553   
O67      O      0.901270000000     0.776120000000     0.515020000000    -0.328591   
O68      O      0.902100000000     0.794890000000     0.578850000000    -0.236138   
O69      O      0.869840000000     0.902340000000     0.528870000000    -0.331719   
O70      O      0.843870000000     0.901770000000     0.584120000000    -0.235132   
O71      O      0.117340000000     0.120540000000     0.431760000000    -0.332225   
O72      O      0.116030000000     0.140800000000     0.369650000000    -0.237809   
O73      O      0.724210000000     0.656830000000     0.822900000000    -0.32783    
O74      O      0.759590000000     0.655950000000     0.855700000000    -0.235225   
O75      O      0.837150000000     0.756620000000     0.378900000000    -0.330816   
O76      O      0.861760000000     0.774300000000     0.332390000000    -0.23545    
O77      O      0.813170000000     0.151660000000     0.650840000000    -0.330385   
O78      O      0.776260000000     0.147990000000     0.625220000000    -0.237998   
O79      O      0.726650000000     0.352830000000     0.141200000000    -0.331013   
O80      O      0.761190000000     0.347940000000     0.106480000000    -0.237203   
O81      O      0.660810000000     0.395300000000     0.899410000000    -0.331827   
O82      O      0.697510000000     0.396460000000     0.871820000000    -0.236274   
O83      O      0.203410000000     0.844830000000     0.656500000000    -0.328562   
O84      O      0.240180000000     0.853930000000     0.635230000000    -0.238289   
O85      O      0.255210000000     0.777390000000     0.462780000000    -0.331671   
O86      O      0.274950000000     0.808790000000     0.440720000000    -0.234448   
O87      O      0.609190000000     0.628990000000     0.933850000000    -0.331525   
O88      O      0.611110000000     0.641400000000     0.864780000000    -0.236093   
O89      O      0.171550000000     0.217010000000     0.609070000000    -0.329188   
O90      O      0.176250000000     0.248950000000     0.568970000000    -0.236877   
O91      O      0.260610000000     0.296930000000     0.028020000000    -0.332107   
O92      O      0.252720000000     0.329870000000     0.063310000000    -0.236911   
O93      O      0.408920000000     0.285420000000     0.030250000000    -0.329764   
O94      O      0.413710000000     0.311660000000     0.083120000000    -0.237593   
O95      O      0.295480000000     0.603310000000     0.070030000000    -0.330611   
O96      O      0.328070000000     0.599450000000     0.110860000000    -0.23896    


