data_structure

_audit_creation_method RASPA-1.0
_audit_creation_date 2023-5-25
_audit_author_name 'Poobodin Mano'

_cell_length_a    44.1177
_cell_length_b    46.631
_cell_length_c    43.1356
_cell_angle_alpha 90
_cell_angle_beta  90
_cell_angle_gamma 90
_cell_volume      88740.8

_symmetry_cell_setting          triclinic
_symmetry_space_group_name_Hall 'P 1'
_symmetry_space_group_name_H-M  'P 1'
_symmetry_Int_Tables_number     1

_symmetry_equiv_pos_as_xyz 'x,y,z'

loop_
_atom_site_label
_atom_site_type_symbol
_atom_site_fract_x
_atom_site_fract_y
_atom_site_fract_z
_atom_site_charge
C1       C      0.931890000000     0.379300000000     0.887310000000     0.340921   
C2       C      0.847010000000     0.373100000000     0.824010000000     0.342987   
C3       C      0.925620000000     0.306550000000     0.808680000000     0.340071   
C4       C      0.867970000000     0.299600000000     0.899070000000     0.339346   
C5       C      0.092060000000     0.556080000000     0.090260000000     0.33876    
C6       C      0.157020000000     0.631410000000     0.082050000000     0.337982   
C7       C      0.093060000000     0.629010000000     0.171370000000     0.340705   
C8       C      0.166760000000     0.566510000000     0.170810000000     0.340817   
C9       C      0.335730000000     0.911490000000     0.897800000000     0.34109    
C10      C      0.350680000000     0.840180000000     0.974110000000     0.341679   
C11      C      0.419930000000     0.849860000000     0.891490000000     0.34176    
C12      C      0.415400000000     0.921570000000     0.969120000000     0.340265   
C13      C      0.687270000000     0.168660000000     0.120630000000     0.339297   
C14      C      0.622670000000     0.084240000000     0.135350000000     0.339166   
C15      C      0.695390000000     0.101580000000     0.204120000000     0.340112   
C16      C      0.614450000000     0.172990000000     0.191210000000     0.340725   
C17      C      0.349150000000     0.393690000000     0.354210000000     0.33877    
C18      C      0.349040000000     0.341200000000     0.454680000000     0.338912   
C19      C      0.417720000000     0.323620000000     0.379810000000     0.340295   
C20      C      0.412110000000     0.417600000000     0.435210000000     0.340298   
C21      C      0.662910000000     0.587810000000     0.706820000000     0.33791    
C22      C      0.577040000000     0.651300000000     0.713140000000     0.337522   
C23      C      0.643450000000     0.664990000000     0.635960000000     0.341194   
C24      C      0.587470000000     0.574030000000     0.639530000000     0.33956    
C25      C      0.904860000000     0.805810000000     0.345670000000     0.339668   
C26      C      0.832860000000     0.876790000000     0.358690000000     0.341537   
C27      C      0.836360000000     0.794140000000     0.427210000000     0.340747   
C28      C      0.908150000000     0.867670000000     0.434430000000     0.340162   
C29      C      0.188880000000     0.046220000000     0.655410000000     0.33922    
C30      C      0.119780000000     0.115660000000     0.666480000000     0.340926   
C31      C      0.182150000000     0.120010000000     0.575420000000     0.340532   
C32      C      0.112520000000     0.051750000000     0.576480000000     0.338547   
C33      C      0.939270000000     0.930870000000     0.474160000000    -0.0290246  
C34      C      0.082310000000     0.989260000000     0.534860000000    -0.0284724  
C35      C      0.064310000000     0.048250000000     0.547630000000    -0.0108184  
C36      C      0.106550000000     0.012510000000     0.538470000000    -0.0108732  
C37      C      0.023960000000     0.977470000000     0.483000000000    -0.052619   
C38      C      0.997240000000     0.941970000000     0.527540000000    -0.0522608  
C39      C      0.032220000000     0.980380000000     0.514190000000     0.0626688  
C40      C      0.041710000000     0.023660000000     0.543680000000    -0.0284853  
C41      C      0.988830000000     0.939190000000     0.496380000000     0.0627611  
C42      C      0.979120000000     0.895230000000     0.468230000000    -0.0394485  
C43      C      0.002510000000     0.957040000000     0.474050000000    -0.0554858  
C44      C      0.956010000000     0.870800000000     0.464060000000     0.0314261  
C45      C      0.914410000000     0.908230000000     0.470690000000    -0.00953748 
C46      C      0.018780000000     0.962330000000     0.536480000000    -0.0553717  
C47      C      0.668800000000     0.696570000000     0.563560000000    -0.0291221  
C48      C      0.806330000000     0.760860000000     0.497270000000    -0.0286416  
C49      C      0.792930000000     0.760780000000     0.431090000000    -0.0106718  
C50      C      0.832100000000     0.763380000000     0.473690000000    -0.0106637  
C51      C      0.754300000000     0.708950000000     0.515610000000    -0.0525816  
C52      C      0.718620000000     0.751680000000     0.542800000000    -0.052244   
C53      C      0.758310000000     0.737560000000     0.506690000000     0.0628274  
C54      C      0.768510000000     0.758220000000     0.456140000000    -0.0286659  
C55      C      0.714530000000     0.723030000000     0.551630000000     0.0627074  
C56      C      0.706380000000     0.705860000000     0.603840000000    -0.0397008  
C57      C      0.732710000000     0.701650000000     0.537950000000    -0.0552513  
C58      C      0.682550000000     0.702620000000     0.629680000000     0.0320996  
C59      C      0.643480000000     0.693480000000     0.587550000000    -0.0092734  
C60      C      0.740370000000     0.758990000000     0.520600000000    -0.0552202  
C61      C      0.246090000000     0.162410000000     0.548280000000    -0.0290401  
C62      C      0.283830000000     0.304090000000     0.484180000000    -0.0288383  
C63      C      0.348390000000     0.306570000000     0.498200000000    -0.010632   
C64      C      0.300890000000     0.332650000000     0.482830000000    -0.0106275  
C65      C      0.269820000000     0.252850000000     0.541190000000    -0.0526205  
C66      C      0.258920000000     0.214270000000     0.492800000000    -0.0522804  
C67      C      0.281060000000     0.258830000000     0.511530000000     0.0628246  
C68      C      0.330180000000     0.278660000000     0.498970000000    -0.0286528  
C69      C      0.247600000000     0.208340000000     0.522440000000     0.0627756  
C70      C      0.199170000000     0.188120000000     0.537330000000    -0.0396067  
C71      C      0.253270000000     0.227820000000     0.546730000000    -0.0552772  
C72      C      0.180500000000     0.160260000000     0.538040000000     0.0319598  
C73      C      0.229640000000     0.133540000000     0.548730000000    -0.00926053 
C74      C      0.275590000000     0.239230000000     0.487310000000    -0.0552106  
C75      C      0.477020000000     0.455980000000     0.466880000000    -0.029113   
C76      C      0.523350000000     0.534990000000     0.606410000000    -0.0286157  
C77      C      0.588910000000     0.537230000000     0.598300000000    -0.0106475  
C78      C      0.543860000000     0.541110000000     0.634240000000    -0.0107068  
C79      C      0.513580000000     0.477530000000     0.557270000000    -0.0525987  
C80      C      0.487340000000     0.515350000000     0.514700000000    -0.0523079  
C81      C      0.519720000000     0.506920000000     0.559460000000     0.0627088  
C82      C      0.566810000000     0.531160000000     0.571770000000    -0.0286341  
C83      C      0.481320000000     0.485940000000     0.512420000000     0.0626606  
C84      C      0.433260000000     0.463550000000     0.500410000000    -0.0395923  
C85      C      0.494510000000     0.467040000000     0.534040000000    -0.0552826  
C86      C      0.410980000000     0.456770000000     0.473930000000     0.031828   
C87      C      0.456760000000     0.449460000000     0.438990000000    -0.00938891 
C88      C      0.506310000000     0.525860000000     0.538030000000    -0.0552917  
C89      C      0.813970000000     0.931950000000     0.300670000000    -0.0288703  
C90      C      0.714660000000     0.054570000000     0.268380000000    -0.0287306  
C91      C      0.744070000000     0.076430000000     0.212660000000    -0.010675   
C92      C      0.708040000000     0.085030000000     0.257070000000    -0.0106355  
C93      C      0.778920000000     0.018470000000     0.293440000000    -0.052696   
C94      C      0.748850000000     0.967430000000     0.278830000000    -0.0522562  
C95      C      0.754360000000     0.019050000000     0.272880000000     0.0627913  
C96      C      0.749540000000     0.046250000000     0.225370000000    -0.028736   
C97      C      0.773570000000     0.966810000000     0.299170000000     0.0627855  
C98      C      0.781100000000     0.938020000000     0.345390000000    -0.0393556  
C99      C      0.788530000000     0.992610000000     0.306540000000    -0.0554247  
C100     C      0.786950000000     0.907160000000     0.356630000000     0.0312588  
C101     C      0.821020000000     0.900880000000     0.309280000000    -0.00955608 
C102     C      0.739240000000     0.993280000000     0.265740000000    -0.0553375  
C103     C      0.584160000000     0.218350000000     0.253330000000    -0.0289631  
C104     C      0.442930000000     0.274720000000     0.319300000000    -0.0287012  
C105     C      0.465570000000     0.296000000000     0.378480000000    -0.0106162  
C106     C      0.420860000000     0.281020000000     0.345790000000    -0.0107074  
C107     C      0.503040000000     0.227870000000     0.308990000000    -0.0526831  
C108     C      0.523260000000     0.264180000000     0.261700000000    -0.0523329  
C109     C      0.492970000000     0.256340000000     0.308070000000     0.062765   
C110     C      0.486170000000     0.289190000000     0.350930000000    -0.0286439  
C111     C      0.533480000000     0.235770000000     0.262740000000     0.0628159  
C112     C      0.542570000000     0.202840000000     0.220270000000    -0.0393992  
C113     C      0.523120000000     0.217580000000     0.286560000000    -0.0553034  
C114     C      0.564140000000     0.196350000000     0.193090000000     0.0315055  
C115     C      0.607440000000     0.213190000000     0.227710000000    -0.00936766 
C116     C      0.503160000000     0.274470000000     0.284120000000    -0.0552929  
C117     C      0.206140000000     0.989680000000     0.711690000000    -0.0290584  
C118     C      0.309080000000     0.965230000000     0.842880000000    -0.0286286  
C119     C      0.286700000000     0.912010000000     0.869940000000    -0.0104113  
C120     C      0.317240000000     0.957410000000     0.876300000000    -0.0105893  
C121     C      0.243490000000     0.981660000000     0.804560000000    -0.0525925  
C122     C      0.272620000000     0.967250000000     0.749120000000    -0.0523569  
C123     C      0.268660000000     0.963360000000     0.805240000000     0.0626591  
C124     C      0.279400000000     0.921470000000     0.836790000000    -0.0287091  
C125     C      0.247450000000     0.985520000000     0.748440000000     0.0627178  
C126     C      0.242940000000     0.028270000000     0.717110000000    -0.0394303  
C127     C      0.232970000000     0.992790000000     0.776470000000    -0.0553749  
C128     C      0.236880000000     0.039140000000     0.684000000000     0.0311846  
C129     C      0.198670000000     0.998530000000     0.678400000000    -0.00963026 
C130     C      0.283290000000     0.956290000000     0.777240000000    -0.055263   
C131     C      0.440890000000     0.804450000000     0.825080000000    -0.0290674  
C132     C      0.553770000000     0.696950000000     0.778510000000    -0.0285148  
C133     C      0.527620000000     0.675040000000     0.721110000000    -0.0109376  
C134     C      0.564130000000     0.667950000000     0.765810000000    -0.0109669  
C135     C      0.485690000000     0.723260000000     0.805860000000    -0.0526324  
C136     C      0.508800000000     0.778320000000     0.795730000000    -0.0522797  
C137     C      0.509680000000     0.727090000000     0.785000000000     0.0626827  
C138     C      0.518670000000     0.703750000000     0.735650000000    -0.0284357  
C139     C      0.484850000000     0.774470000000     0.816630000000     0.0626651  
C140     C      0.477630000000     0.797450000000     0.866410000000    -0.0394391  
C141     C      0.473320000000     0.746680000000     0.821600000000    -0.0553313  
C142     C      0.469110000000     0.826040000000     0.881970000000     0.0314757  
C143     C      0.430940000000     0.833400000000     0.838280000000    -0.0093685  
C144     C      0.521190000000     0.754890000000     0.780000000000    -0.0552531  
C145     C      0.585390000000     0.044350000000     0.072990000000    -0.0290829  
C146     C      0.452740000000     0.954740000000     0.036870000000    -0.0285812  
C147     C      0.452900000000     0.960770000000     0.969560000000    -0.0106966  
C148     C      0.424180000000     0.947250000000     0.018380000000    -0.0109602  
C149     C      0.494550000000     0.017740000000     0.046560000000    -0.0523929  
C150     C      0.542340000000     0.982990000000     0.066640000000    -0.0523019  
C151     C      0.494480000000     0.988490000000     0.039200000000     0.062687   
C152     C      0.480270000000     0.967480000000     0.990040000000    -0.0283742  
C153     C      0.542430000000     0.012260000000     0.073950000000     0.0626835  
C154     C      0.557970000000     0.036300000000     0.121200000000    -0.0397058  
C155     C      0.518290000000     0.029630000000     0.063730000000    -0.0552693  
C156     C      0.585730000000     0.044610000000     0.140890000000     0.0320263  
C157     C      0.614390000000     0.052380000000     0.090360000000    -0.00933496 
C158     C      0.518650000000     0.971130000000     0.049350000000    -0.0551987  
C159     C      0.026160000000     0.657570000000     0.212550000000    -0.0289775  
C160     C      0.971930000000     0.781200000000     0.302340000000    -0.0286606  
C161     C      0.907810000000     0.766670000000     0.307300000000    -0.0107968  
C162     C      0.948890000000     0.804560000000     0.310400000000    -0.0106017  
C163     C      0.983510000000     0.737780000000     0.238440000000    -0.0525171  
C164     C      0.016400000000     0.700980000000     0.277040000000    -0.0524588  
C165     C      0.979210000000     0.739040000000     0.270580000000     0.062716   
C166     C      0.932480000000     0.744850000000     0.299330000000    -0.0286162  
C167     C      0.020500000000     0.699550000000     0.244880000000     0.0629059  
C168     C      0.067240000000     0.692050000000     0.216510000000    -0.0393249  
C169     C      0.004000000000     0.718260000000     0.225600000000    -0.0555115  
C170     C      0.091280000000     0.669290000000     0.208540000000     0.0313307  
C171     C      0.047960000000     0.633140000000     0.204780000000    -0.00930037 
C172     C      0.995980000000     0.720560000000     0.289890000000    -0.0551515  
C173     C      0.323350000000     0.769390000000     0.996790000000    -0.0290081  
C174     C      0.184710000000     0.699440000000     0.053490000000    -0.0286809  
C175     C      0.198510000000     0.638920000000     0.044200000000    -0.0107875  
C176     C      0.159210000000     0.677200000000     0.053030000000    -0.0106992  
C177     C      0.237580000000     0.723580000000     0.000870000000    -0.0530118  
C178     C      0.271860000000     0.743190000000     0.051130000000    -0.0521027  
C179     C      0.232880000000     0.711670000000     0.030290000000     0.0627702  
C180     C      0.222870000000     0.662320000000     0.044810000000    -0.0286864  
C181     C      0.276580000000     0.755090000000     0.021720000000     0.0624156  
C182     C      0.285000000000     0.805120000000     0.009470000000    -0.0395944  
C183     C      0.259180000000     0.745140000000     0.996530000000    -0.0550442  
C184     C      0.308670000000     0.829370000000     0.010340000000     0.0314942  
C185     C      0.348630000000     0.791840000000     0.997650000000    -0.00936022 
C186     C      0.250190000000     0.721700000000     0.055500000000    -0.0553637  
C187     C      0.236790000000     0.535570000000     0.203990000000    -0.0290086  
C188     C      0.283620000000     0.422570000000     0.312780000000    -0.0285549  
C189     C      0.349340000000     0.422110000000     0.305820000000    -0.0107795  
C190     C      0.301910000000     0.396550000000     0.323560000000    -0.0108175  
C191     C      0.270650000000     0.455150000000     0.242290000000    -0.0526192  
C192     C      0.253630000000     0.504180000000     0.275320000000    -0.0521894  
C193     C      0.280670000000     0.458770000000     0.272850000000     0.0627286  
C194     C      0.329360000000     0.447230000000     0.295640000000    -0.0287127  
C195     C      0.243480000000     0.500500000000     0.244830000000     0.0628162  
C196     C      0.193240000000     0.510400000000     0.225130000000    -0.0393349  
C197     C      0.252170000000     0.475770000000     0.228310000000    -0.0553667  
C198     C      0.171490000000     0.534870000000     0.216410000000     0.0312797  
C199     C      0.217410000000     0.561310000000     0.194410000000    -0.00938734 
C200     C      0.272060000000     0.483550000000     0.289320000000    -0.0552209  
C201     C      0.053740000000     0.143530000000     0.707180000000    -0.0290483  
C202     C      0.992120000000     0.278680000000     0.768480000000    -0.0285038  
C203     C      0.928370000000     0.263530000000     0.775300000000    -0.0108303  
C204     C      0.968190000000     0.302270000000     0.771630000000    -0.0107943  
C205     C      0.005940000000     0.224750000000     0.715010000000    -0.0527699  
C206     C      0.039880000000     0.197260000000     0.761020000000    -0.0523579  
C207     C      0.001230000000     0.231860000000     0.746170000000     0.0627634  
C208     C      0.953630000000     0.241280000000     0.772140000000    -0.0285079  
C209     C      0.044590000000     0.190140000000     0.729850000000     0.0626267  
C210     C      0.092210000000     0.180950000000     0.703880000000    -0.0397591  
C211     C      0.027420000000     0.204090000000     0.706810000000    -0.0552534  
C212     C      0.117740000000     0.158790000000     0.699850000000     0.0321819  
C213     C      0.077550000000     0.119880000000     0.703920000000    -0.00930289 
C214     C      0.018390000000     0.217930000000     0.769220000000    -0.0553472  
C215     C      0.716420000000     0.195740000000     0.046130000000    -0.0289742  
C216     C      0.844640000000     0.272370000000     0.975060000000    -0.0287001  
C217     C      0.832150000000     0.260170000000     0.910020000000    -0.0107747  
C218     C      0.869530000000     0.276590000000     0.950730000000    -0.0107879  
C219     C      0.802160000000     0.213680000000     0.000170000000    -0.0528718  
C220     C      0.760340000000     0.253280000000     0.023460000000    -0.0521993  
C221     C      0.802320000000     0.241880000000     0.989000000000     0.0629083  
C222     C      0.808580000000     0.256770000000     0.935720000000    -0.0284914  
C223     C      0.760140000000     0.225080000000     0.034580000000     0.0627415  
C224     C      0.752240000000     0.207760000000     0.086930000000    -0.0393495  
C225     C      0.781260000000     0.205240000000     0.022750000000    -0.0552788  
C226     C      0.728090000000     0.204140000000     0.112360000000     0.0312901  
C227     C      0.690540000000     0.191940000000     0.069360000000    -0.0094898  
C228     C      0.781170000000     0.261700000000     0.000810000000    -0.0554562  
C229     C      0.816380000000     0.428610000000     0.772500000000    -0.0290292  
C230     C      0.692350000000     0.533130000000     0.759670000000    -0.0286181  
C231     C      0.715540000000     0.569970000000     0.710470000000    -0.0108881  
C232     C      0.678800000000     0.562990000000     0.754790000000    -0.0109453  
C233     C      0.764090000000     0.507650000000     0.778610000000    -0.0526237  
C234     C      0.745310000000     0.454770000000     0.754800000000    -0.052405   
C235     C      0.739430000000     0.506560000000     0.758210000000     0.0626913  
C236     C      0.727710000000     0.539820000000     0.716860000000    -0.0285268  
C237     C      0.769890000000     0.455850000000     0.775300000000     0.062793   
C238     C      0.783070000000     0.423480000000     0.817120000000    -0.0394586  
C239     C      0.779300000000     0.482570000000     0.787100000000    -0.0553193  
C240     C      0.795150000000     0.393230000000     0.824250000000     0.0316673  
C241     C      0.829530000000     0.398580000000     0.777120000000    -0.00921049 
C242     C      0.730180000000     0.479860000000     0.746200000000    -0.0552102  
C243     C      0.992030000000     0.404710000000     0.940290000000    -0.0289992  
C244     C      0.034050000000     0.529810000000     0.034810000000    -0.0283377  
C245     C      0.084660000000     0.506950000000     0.070660000000    -0.0110312  
C246     C      0.043520000000     0.544810000000     0.064820000000    -0.011086   
C247     C      0.004930000000     0.462600000000     0.018430000000    -0.0529608  
C248     C      0.022610000000     0.471590000000     0.956940000000    -0.0522726  
C249     C      0.027350000000     0.482950000000     0.011790000000     0.0626548  
C250     C      0.073260000000     0.493700000000     0.040380000000    -0.0282973  
C251     C      0.000130000000     0.451290000000     0.963590000000     0.0623177  
C252     C      0.953810000000     0.441900000000     0.935190000000    -0.0394984  
C253     C      0.991360000000     0.446860000000     0.994610000000    -0.0548845  
C254     C      0.941390000000     0.428890000000     0.904970000000     0.0314955  
C255     C      0.981820000000     0.390030000000     0.910330000000    -0.00935321 
C256     C      0.036180000000     0.487340000000     0.980770000000    -0.0553721  
Cd1      Cd     0.893130000000     0.339560000000     0.854740000000     0.505846   
Cd2      Cd     0.127360000000     0.595470000000     0.127450000000     0.506278   
Cd3      Cd     0.380570000000     0.880600000000     0.933480000000     0.505849   
Cd4      Cd     0.654830000000     0.131770000000     0.162960000000     0.506635   
Cd5      Cd     0.382130000000     0.369610000000     0.405870000000     0.506249   
Cd6      Cd     0.617460000000     0.619640000000     0.673140000000     0.505859   
Cd7      Cd     0.870130000000     0.836130000000     0.391920000000     0.505917   
Cd8      Cd     0.150650000000     0.083360000000     0.618760000000     0.506499   
H1       H      0.024870000000     0.964040000000     0.560710000000     0.0439338  
H2       H      0.930520000000     0.948380000000     0.489250000000     0.0376638  
H3       H      0.000550000000     0.886710000000     0.478380000000     0.0421132  
H4       H      0.066070000000     0.060000000000     0.525270000000     0.0433788  
H5       H      0.906270000000     0.902150000000     0.494190000000     0.0448025  
H6       H      0.091060000000     0.972620000000     0.518660000000     0.037801   
H7       H      0.020280000000     0.032550000000     0.534020000000     0.0376235  
H8       H      0.126800000000     0.002930000000     0.549790000000     0.0491135  
H9       H      0.965140000000     0.856140000000     0.446000000000     0.0415914  
H10      H      0.987010000000     0.928300000000     0.544930000000     0.0482043  
H11      H      0.894980000000     0.917970000000     0.458110000000     0.0478107  
H12      H      0.034190000000     0.991140000000     0.465610000000     0.0473249  
H13      H      0.944410000000     0.940130000000     0.450950000000     0.0405987  
H14      H      0.055310000000     0.063430000000     0.565250000000     0.0489938  
H15      H      0.078230000000     0.978950000000     0.557780000000     0.0417947  
H16      H      0.036670000000     0.014230000000     0.566830000000     0.0416547  
H17      H      0.996570000000     0.955210000000     0.449790000000     0.0435164  
H18      H      0.984900000000     0.903960000000     0.444920000000     0.042985   
H19      H      0.113440000000     0.019930000000     0.515000000000     0.0434772  
H20      H      0.743240000000     0.781310000000     0.514390000000     0.0442333  
H21      H      0.658770000000     0.704990000000     0.541700000000     0.0380597  
H22      H      0.724710000000     0.720730000000     0.611470000000     0.0424455  
H23      H      0.798710000000     0.738880000000     0.422780000000     0.0431337  
H24      H      0.631290000000     0.714280000000     0.589310000000     0.0440163  
H25      H      0.815240000000     0.749910000000     0.518310000000     0.0378501  
H26      H      0.749430000000     0.745260000000     0.446720000000     0.0380233  
H27      H      0.850110000000     0.777350000000     0.483530000000     0.0487756  
H28      H      0.693780000000     0.691630000000     0.649450000000     0.0417902  
H29      H      0.705000000000     0.768370000000     0.553310000000     0.0482703  
H30      H      0.626980000000     0.677240000000     0.579140000000     0.0485126  
H31      H      0.768090000000     0.692280000000     0.505280000000     0.0474309  
H32      H      0.678500000000     0.674980000000     0.558730000000     0.0419993  
H33      H      0.783500000000     0.772950000000     0.411140000000     0.049397   
H34      H      0.798690000000     0.782750000000     0.504050000000     0.0422482  
H35      H      0.759800000000     0.780030000000     0.461720000000     0.0421631  
H36      H      0.730290000000     0.679400000000     0.544600000000     0.0439713  
H37      H      0.717130000000     0.684550000000     0.599860000000     0.0441485  
H38      H      0.842010000000     0.741720000000     0.469980000000     0.0430867  
H39      H      0.284220000000     0.243220000000     0.464220000000     0.0443715  
H40      H      0.269770000000     0.158760000000     0.540270000000     0.0382102  
H41      H      0.188220000000     0.204090000000     0.521670000000     0.0423544  
H42      H      0.349100000000     0.315580000000     0.522060000000     0.0418512  
H43      H      0.232310000000     0.123240000000     0.525640000000     0.0446487  
H44      H      0.259970000000     0.308420000000     0.491130000000     0.0380346  
H45      H      0.340360000000     0.264260000000     0.516740000000     0.0376417  
H46      H      0.290600000000     0.346390000000     0.464590000000     0.0495625  
H47      H      0.158460000000     0.165340000000     0.549280000000     0.0414991  
H48      H      0.254820000000     0.199440000000     0.473950000000     0.0482943  
H49      H      0.240790000000     0.119430000000     0.566100000000     0.049573   
H50      H      0.273990000000     0.267640000000     0.560080000000     0.0472272  
H51      H      0.246950000000     0.171180000000     0.572280000000     0.042345   
H52      H      0.372040000000     0.301730000000     0.491040000000     0.0482472  
H53      H      0.283680000000     0.294370000000     0.460600000000     0.0429599  
H54      H      0.331930000000     0.267930000000     0.475970000000     0.0426786  
H55      H      0.244930000000     0.223680000000     0.569890000000     0.0439138  
H56      H      0.199050000000     0.197530000000     0.561060000000     0.0436639  
H57      H      0.298050000000     0.343740000000     0.505470000000     0.0422513  
H58      H      0.510510000000     0.548690000000     0.539340000000     0.0440737  
H59      H      0.498450000000     0.465740000000     0.458260000000     0.0380283  
H60      H      0.422550000000     0.478560000000     0.517300000000     0.0422793  
H61      H      0.597710000000     0.516430000000     0.607140000000     0.0420033  
H62      H      0.454470000000     0.469310000000     0.424900000000     0.0444712  
H63      H      0.502660000000     0.523790000000     0.614880000000     0.0376818  
H64      H      0.578330000000     0.517090000000     0.554570000000     0.0375638  
H65      H      0.531990000000     0.556200000000     0.650090000000     0.0487096  
H66      H      0.391820000000     0.444490000000     0.484150000000     0.041083   
H67      H      0.477230000000     0.530140000000     0.498340000000     0.0482046  
H68      H      0.468170000000     0.433120000000     0.424300000000     0.0491086  
H69      H      0.523620000000     0.462730000000     0.573680000000     0.0472093  
H70      H      0.482710000000     0.435490000000     0.478780000000     0.0417838  
H71      H      0.608470000000     0.549600000000     0.589060000000     0.0483282  
H72      H      0.516290000000     0.555680000000     0.595710000000     0.0421782  
H73      H      0.560950000000     0.551750000000     0.560140000000     0.0418559  
H74      H      0.490070000000     0.444240000000     0.532950000000     0.0437592  
H75      H      0.438090000000     0.443280000000     0.513170000000     0.0433972  
H76      H      0.547620000000     0.520720000000     0.647040000000     0.0424848  
H77      H      0.720210000000     0.993120000000     0.249920000000     0.0442086  
H78      H      0.815470000000     0.934060000000     0.275010000000     0.0376911  
H79      H      0.758320000000     0.945430000000     0.353240000000     0.0421246  
H80      H      0.762410000000     0.090730000000     0.221250000000     0.0429563  
H81      H      0.806460000000     0.886530000000     0.295070000000     0.0449675  
H82      H      0.712410000000     0.054160000000     0.294080000000     0.0378622  
H83      H      0.773070000000     0.039690000000     0.219310000000     0.0376813  
H84      H      0.684110000000     0.090450000000     0.262630000000     0.0490282  
H85      H      0.788960000000     0.907870000000     0.382320000000     0.0411652  
H86      H      0.737180000000     0.947740000000     0.272930000000     0.0483845  
H87      H      0.844980000000     0.896290000000     0.303020000000     0.0479161  
H88      H      0.790770000000     0.038120000000     0.299120000000     0.0471534  
H89      H      0.831370000000     0.946260000000     0.311200000000     0.0406122  
H90      H      0.745530000000     0.075790000000     0.186940000000     0.0485221  
H91      H      0.697490000000     0.039690000000     0.258400000000     0.0422465  
H92      H      0.733530000000     0.031100000000     0.213990000000     0.042057   
H93      H      0.807730000000     0.992700000000     0.322140000000     0.0432785  
H94      H      0.798100000000     0.952440000000     0.356420000000     0.0424647  
H95      H      0.722870000000     0.100170000000     0.269980000000     0.0431225  
H96      H      0.495720000000     0.296550000000     0.282860000000     0.0440958  
H97      H      0.592580000000     0.236040000000     0.268380000000     0.0380856  
H98      H      0.519650000000     0.208620000000     0.211320000000     0.0421093  
H99      H      0.465300000000     0.277140000000     0.394250000000     0.0426335  
H100     H      0.612440000000     0.234000000000     0.216200000000     0.0448603  
H101     H      0.433390000000     0.257030000000     0.304990000000     0.0375374  
H102     H      0.508600000000     0.282190000000     0.360000000000     0.0377604  
H103     H      0.399170000000     0.288910000000     0.335840000000     0.04794    
H104     H      0.555920000000     0.176420000000     0.181720000000     0.0410352  
H105     H      0.531060000000     0.278400000000     0.243530000000     0.0483231  
H106     H      0.628830000000     0.205510000000     0.238520000000     0.0492634  
H107     H      0.495380000000     0.213700000000     0.327270000000     0.0472269  
H108     H      0.582160000000     0.198630000000     0.267750000000     0.041614   
H109     H      0.475290000000     0.314410000000     0.391500000000     0.049075   
H110     H      0.444970000000     0.294140000000     0.304410000000     0.0418389  
H111     H      0.489570000000     0.309060000000     0.337030000000     0.0421995  
H112     H      0.530700000000     0.195540000000     0.287910000000     0.0436711  
H113     H      0.539830000000     0.182910000000     0.234240000000     0.0430641  
H114     H      0.416090000000     0.260640000000     0.358250000000     0.0422098  
H115     H      0.303020000000     0.942510000000     0.777140000000     0.043987   
H116     H      0.202710000000     0.966120000000     0.713860000000     0.0379017  
H117     H      0.266610000000     0.033600000000     0.724150000000     0.0422605  
H118     H      0.267510000000     0.918310000000     0.885210000000     0.0425371  
H119     H      0.211690000000     0.984590000000     0.662280000000     0.0450851  
H120     H      0.308400000000     0.989030000000     0.840950000000     0.0377541  
H121     H      0.256700000000     0.912900000000     0.830390000000     0.0375628  
H122     H      0.340420000000     0.965480000000     0.881400000000     0.0487101  
H123     H      0.237630000000     0.062960000000     0.684760000000     0.041853   
H124     H      0.284170000000     0.961720000000     0.727790000000     0.0482779  
H125     H      0.174180000000     0.994540000000     0.674120000000     0.048387   
H126     H      0.232190000000     0.987490000000     0.825940000000     0.0472493  
H127     H      0.190090000000     0.000610000000     0.727740000000     0.0409259  
H128     H      0.288520000000     0.888230000000     0.870520000000     0.0482804  
H129     H      0.327060000000     0.957080000000     0.827040000000     0.0423929  
H130     H      0.296500000000     0.912040000000     0.820770000000     0.0417897  
H131     H      0.213740000000     0.007180000000     0.776670000000     0.0436433  
H132     H      0.227580000000     0.039870000000     0.733330000000     0.043287   
H133     H      0.301190000000     0.968540000000     0.892130000000     0.0428143  
H134     H      0.539770000000     0.758420000000     0.764070000000     0.0438959  
H135     H      0.437750000000     0.804960000000     0.799480000000     0.0376514  
H136     H      0.501670000000     0.791910000000     0.871710000000     0.0422001  
H137     H      0.510470000000     0.658680000000     0.727760000000     0.0439561  
H138     H      0.442650000000     0.850720000000     0.825230000000     0.0446404  
H139     H      0.555880000000     0.696490000000     0.804220000000     0.0378022  
H140     H      0.494650000000     0.708340000000     0.729490000000     0.0376198  
H141     H      0.588660000000     0.665230000000     0.770950000000     0.0491948  
H142     H      0.469400000000     0.822450000000     0.907450000000     0.0414681  
H143     H      0.517930000000     0.799560000000     0.791730000000     0.0482627  
H144     H      0.406190000000     0.835940000000     0.834260000000     0.0475962  
H145     H      0.476660000000     0.702000000000     0.809970000000     0.047292   
H146     H      0.426080000000     0.787280000000     0.834700000000     0.0406903  
H147     H      0.527040000000     0.677240000000     0.695450000000     0.0486072  
H148     H      0.568990000000     0.714070000000     0.769460000000     0.0415203  
H149     H      0.533090000000     0.721040000000     0.725650000000     0.0411328  
H150     H      0.454880000000     0.743110000000     0.837680000000     0.0433364  
H151     H      0.463330000000     0.780170000000     0.876620000000     0.0428902  
H152     H      0.551640000000     0.650710000000     0.778220000000     0.04406    
H153     H      0.519270000000     0.948510000000     0.043760000000     0.0438983  
H154     H      0.591870000000     0.034610000000     0.050380000000     0.0379658  
H155     H      0.543400000000     0.020870000000     0.134160000000     0.0424066  
H156     H      0.441030000000     0.981200000000     0.964090000000     0.0441747  
H157     H      0.629390000000     0.033230000000     0.091280000000     0.044329   
H158     H      0.445720000000     0.962400000000     0.060230000000     0.0379884  
H159     H      0.493860000000     0.984570000000     0.978560000000     0.0378041  
H160     H      0.412850000000     0.928650000000     0.029600000000     0.0487801  
H161     H      0.577270000000     0.057030000000     0.161120000000     0.041394   
H162     H      0.560810000000     0.969400000000     0.074220000000     0.0481293  
H163     H      0.626470000000     0.069220000000     0.076940000000     0.0489348  
H164     H      0.476210000000     0.031390000000     0.038750000000     0.0475786  
H165     H      0.572100000000     0.064180000000     0.068210000000     0.0419245  
H166     H      0.461140000000     0.951520000000     0.947350000000     0.0491945  
H167     H      0.466670000000     0.935030000000     0.039890000000     0.0412628  
H168     H      0.494710000000     0.947970000000     0.992100000000     0.0416248  
H169     H      0.517870000000     0.052330000000     0.068890000000     0.0438996  
H170     H      0.544130000000     0.055940000000     0.117280000000     0.0434691  
H171     H      0.408310000000     0.965740000000     0.019480000000     0.0441278  
H172     H      0.993170000000     0.721170000000     0.314800000000     0.0439015  
H173     H      0.006150000000     0.648350000000     0.224720000000     0.0379817  
H174     H      0.077420000000     0.709230000000     0.231190000000     0.0420271  
H175     H      0.896820000000     0.773810000000     0.285420000000     0.0437739  
H176     H      0.052110000000     0.620410000000     0.226170000000     0.0454526  
H177     H      0.991110000000     0.791320000000     0.289630000000     0.0376139  
H178     H      0.922340000000     0.727930000000     0.284380000000     0.0377756  
H179     H      0.959570000000     0.819840000000     0.326900000000     0.0486027  
H180     H      0.108250000000     0.679630000000     0.193080000000     0.0409529  
H181     H      0.029000000000     0.686760000000     0.292130000000     0.0484381  
H182     H      0.036780000000     0.618720000000     0.187720000000     0.0487832  
H183     H      0.970820000000     0.751910000000     0.223330000000     0.0473486  
H184     H      0.018140000000     0.667630000000     0.190620000000     0.0408995  
H185     H      0.890240000000     0.755890000000     0.321640000000     0.0485373  
H186     H      0.980960000000     0.771700000000     0.324160000000     0.0414525  
H187     H      0.940620000000     0.734570000000     0.321090000000     0.0412818  
H188     H      0.006830000000     0.717660000000     0.200690000000     0.043524   
H189     H      0.059670000000     0.702470000000     0.194590000000     0.0426805  
H190     H      0.943240000000     0.816610000000     0.288920000000     0.0437601  
H191     H      0.246880000000     0.713000000000     0.078510000000     0.0444869  
H192     H      0.333110000000     0.748320000000     0.003700000000     0.0377066  
H193     H      0.265740000000     0.810300000000     0.025270000000     0.0422557  
H194     H      0.192320000000     0.634660000000     0.019640000000     0.0417874  
H195     H      0.359820000000     0.790870000000     0.020720000000     0.0445624  
H196     H      0.175570000000     0.720100000000     0.044560000000     0.0376706  
H197     H      0.241850000000     0.655600000000     0.029450000000     0.0377329  
H198     H      0.140950000000     0.684230000000     0.069080000000     0.0488111  
H199     H      0.297910000000     0.848720000000     0.000090000000     0.0417111  
H200     H      0.284960000000     0.750730000000     0.070740000000     0.0483046  
H201     H      0.365930000000     0.786140000000     0.979950000000     0.047933   
H202     H      0.224360000000     0.716180000000     0.981300000000     0.0471765  
H203     H      0.314770000000     0.767500000000     0.972600000000     0.0411605  
H204     H      0.208130000000     0.618860000000     0.054020000000     0.0490301  
H205     H      0.192260000000     0.702790000000     0.077870000000     0.0429591  
H206     H      0.231760000000     0.664360000000     0.068870000000     0.0427959  
H207     H      0.262220000000     0.754080000000     0.973590000000     0.0434769  
H208     H      0.275520000000     0.803880000000     0.985570000000     0.0434546  
H209     H      0.149540000000     0.676390000000     0.029240000000     0.0419128  
H210     H      0.279390000000     0.486810000000     0.313000000000     0.0442096  
H211     H      0.260120000000     0.543340000000     0.209130000000     0.037882   
H212     H      0.184350000000     0.498510000000     0.245650000000     0.0421951  
H213     H      0.354050000000     0.408430000000     0.285260000000     0.0427622  
H214     H      0.220120000000     0.578490000000     0.212070000000     0.0452824  
H215     H      0.260760000000     0.415070000000     0.305430000000     0.0377711  
H216     H      0.340400000000     0.457990000000     0.275570000000     0.0377425  
H217     H      0.290810000000     0.387270000000     0.344410000000     0.049287   
H218     H      0.150140000000     0.524860000000     0.208000000000     0.0414086  
H219     H      0.247000000000     0.523030000000     0.288340000000     0.0485082  
H220     H      0.226210000000     0.569800000000     0.172060000000     0.0482039  
H221     H      0.277020000000     0.436160000000     0.229380000000     0.0471854  
H222     H      0.238140000000     0.520220000000     0.184260000000     0.0406879  
H223     H      0.371340000000     0.430690000000     0.314300000000     0.0484456  
H224     H      0.280720000000     0.437620000000     0.332620000000     0.0421378  
H225     H      0.327770000000     0.462960000000     0.314990000000     0.0418099  
H226     H      0.244490000000     0.472330000000     0.204780000000     0.0434724  
H227     H      0.194060000000     0.494850000000     0.205540000000     0.042895   
H228     H      0.301370000000     0.380050000000     0.304950000000     0.0430495  
H229     H      0.015170000000     0.223020000000     0.793480000000     0.0438934  
H230     H      0.034660000000     0.135090000000     0.721400000000     0.0378047  
H231     H      0.101220000000     0.200700000000     0.715180000000     0.0422214  
H232     H      0.918130000000     0.267110000000     0.752070000000     0.043138   
H233     H      0.083430000000     0.111880000000     0.727440000000     0.043746   
H234     H      0.011090000000     0.287060000000     0.754090000000     0.0377162  
H235     H      0.944170000000     0.221950000000     0.760480000000     0.037679   
H236     H      0.978190000000     0.320600000000     0.784540000000     0.0489428  
H237     H      0.134170000000     0.167840000000     0.682930000000     0.0412027  
H238     H      0.052950000000     0.186740000000     0.778970000000     0.0479917  
H239     H      0.067430000000     0.101710000000     0.690840000000     0.0484143  
H240     H      0.992890000000     0.235280000000     0.697050000000     0.0474977  
H241     H      0.044790000000     0.149010000000     0.683770000000     0.0418517  
H242     H      0.910430000000     0.254740000000     0.790720000000     0.048773   
H243     H      0.001180000000     0.273390000000     0.791890000000     0.0417753  
H244     H      0.961530000000     0.234920000000     0.795680000000     0.0417042  
H245     H      0.030640000000     0.199040000000     0.682550000000     0.0438239  
H246     H      0.084060000000     0.187330000000     0.680430000000     0.0436409  
H247     H      0.962080000000     0.309970000000     0.748040000000     0.0432489  
H248     H      0.780670000000     0.283570000000     0.992430000000     0.0440988  
H249     H      0.706590000000     0.202940000000     0.023670000000     0.0379648  
H250     H      0.769810000000     0.223480000000     0.094500000000     0.0422162  
H251     H      0.842550000000     0.238880000000     0.905400000000     0.0431105  
H252     H      0.676620000000     0.211810000000     0.069510000000     0.0450844  
H253     H      0.855540000000     0.266420000000     0.997420000000     0.0375427  
H254     H      0.792670000000     0.239320000000     0.928980000000     0.0378481  
H255     H      0.883800000000     0.295180000000     0.957610000000     0.0477847  
H256     H      0.739280000000     0.193610000000     0.132470000000     0.0417011  
H257     H      0.744180000000     0.268740000000     0.032300000000     0.0482828  
H258     H      0.675760000000     0.174130000000     0.061250000000     0.0488039  
H259     H      0.818180000000     0.198180000000     0.991180000000     0.0473429  
H260     H      0.727720000000     0.174670000000     0.042310000000     0.0411819  
H261     H      0.820460000000     0.267200000000     0.888490000000     0.049743   
H262     H      0.832410000000     0.293030000000     0.978390000000     0.0414554  
H263     H      0.795400000000     0.277050000000     0.937910000000     0.0422489  
H264     H      0.781520000000     0.183290000000     0.030860000000     0.0435673  
H265     H      0.763970000000     0.186820000000     0.083680000000     0.0429281  
H266     H      0.884210000000     0.257200000000     0.950540000000     0.0427154  
H267     H      0.711290000000     0.478440000000     0.730260000000     0.0436277  
H268     H      0.817220000000     0.433820000000     0.747330000000     0.037926   
H269     H      0.759240000000     0.425620000000     0.825430000000     0.0421891  
H270     H      0.730590000000     0.585780000000     0.722120000000     0.0434467  
H271     H      0.817810000000     0.383560000000     0.761090000000     0.0447677  
H272     H      0.690510000000     0.527590000000     0.784700000000     0.0377782  
H273     H      0.752060000000     0.539210000000     0.710150000000     0.0375516  
H274     H      0.654200000000     0.562220000000     0.760330000000     0.0489324  
H275     H      0.796840000000     0.391270000000     0.849890000000     0.0413561  
H276     H      0.737890000000     0.434380000000     0.745470000000     0.0481178  
H277     H      0.853890000000     0.398970000000     0.770520000000     0.0484134  
H278     H      0.771530000000     0.528040000000     0.787910000000     0.0473783  
H279     H      0.830710000000     0.444460000000     0.785100000000     0.0415538  
H280     H      0.716570000000     0.574090000000     0.685100000000     0.0484357  
H281     H      0.678880000000     0.517250000000     0.746180000000     0.0412712  
H282     H      0.715210000000     0.524120000000     0.702190000000     0.0413453  
H283     H      0.798330000000     0.484020000000     0.802850000000     0.0436619  
H284     H      0.796870000000     0.439270000000     0.830420000000     0.0431551  
H285     H      0.689720000000     0.578060000000     0.771360000000     0.0436101  
H286     H      0.053430000000     0.502950000000     0.975010000000     0.0434566  
H287     H      0.016670000000     0.400540000000     0.943510000000     0.0376998  
H288     H      0.949700000000     0.465500000000     0.935590000000     0.0419258  
H289     H      0.075370000000     0.494390000000     0.090410000000     0.0445675  
H290     H      0.997470000000     0.396420000000     0.891340000000     0.0453406  
H291     H      0.009320000000     0.533340000000     0.031320000000     0.0375401  
H292     H      0.077840000000     0.470230000000     0.041040000000     0.037457   
H293     H      0.040930000000     0.568350000000     0.061650000000     0.048269   
H294     H      0.916280000000     0.430900000000     0.905690000000     0.040429   
H295     H      0.029530000000     0.475250000000     0.933180000000     0.0480598  
H296     H      0.983950000000     0.366440000000     0.913380000000     0.0483546  
H297     H      0.997900000000     0.459020000000     0.042180000000     0.0475769  
H298     H      0.979660000000     0.395070000000     0.960240000000     0.0406437  
H299     H      0.109780000000     0.505010000000     0.071420000000     0.0479527  
H300     H      0.046330000000     0.539690000000     0.014940000000     0.0403497  
H301     H      0.086130000000     0.503040000000     0.020590000000     0.0403061  
H302     H      0.974010000000     0.431340000000     0.000370000000     0.0431845  
H303     H      0.940980000000     0.432610000000     0.955040000000     0.042569   
H304     H      0.027810000000     0.538140000000     0.083650000000     0.0448325  
N1       N      0.926040000000     0.882300000000     0.454970000000    -0.157406   
N2       N      0.966460000000     0.917930000000     0.488110000000    -0.110639   
N3       N      0.054260000000     0.001940000000     0.522500000000    -0.113254   
N4       N      0.094570000000     0.037220000000     0.555960000000    -0.153435   
N5       N      0.656190000000     0.686130000000     0.618230000000    -0.157863   
N6       N      0.692230000000     0.716410000000     0.575070000000    -0.110575   
N7       N      0.781190000000     0.744220000000     0.483870000000    -0.113323   
N8       N      0.820520000000     0.774200000000     0.443840000000    -0.154044   
N9       N      0.197020000000     0.137600000000     0.555100000000    -0.157604   
N10      N      0.230470000000     0.182320000000     0.527160000000    -0.110581   
N11      N      0.298320000000     0.284760000000     0.506830000000    -0.113517   
N12      N      0.333400000000     0.327350000000     0.477560000000    -0.153958   
N13      N      0.426330000000     0.440210000000     0.449250000000    -0.157706   
N14      N      0.461510000000     0.475930000000     0.488060000000    -0.110595   
N15      N      0.539490000000     0.516870000000     0.583860000000    -0.113392   
N16      N      0.573440000000     0.552290000000     0.623860000000    -0.154259   
N17      N      0.814820000000     0.895330000000     0.342430000000    -0.157701   
N18      N      0.783370000000     0.939530000000     0.311380000000    -0.110629   
N19      N      0.745570000000     0.046090000000     0.259280000000    -0.113374   
N20      N      0.714700000000     0.087530000000     0.223690000000    -0.153959   
N21      N      0.595650000000     0.192930000000     0.204280000000    -0.157715   
N22      N      0.554790000000     0.226180000000     0.239570000000    -0.11061    
N23      N      0.472620000000     0.266280000000     0.331960000000    -0.113432   
N24      N      0.434390000000     0.301580000000     0.367770000000    -0.154224   
N25      N      0.207180000000     0.028740000000     0.672710000000    -0.157189   
N26      N      0.237760000000     0.997130000000     0.719020000000    -0.110614   
N27      N      0.279340000000     0.953010000000     0.834840000000    -0.113336   
N28      N      0.314490000000     0.926220000000     0.881110000000    -0.154097   
N29      N      0.438920000000     0.835910000000     0.871460000000    -0.157779   
N30      N      0.472920000000     0.799190000000     0.832670000000    -0.110579   
N31      N      0.522090000000     0.702270000000     0.769540000000    -0.113263   
N32      N      0.557580000000     0.665590000000     0.732360000000    -0.153317   
N33      N      0.607500000000     0.061620000000     0.122360000000    -0.157332   
N34      N      0.567580000000     0.023800000000     0.091400000000    -0.110535   
N35      N      0.469940000000     0.977260000000     0.020680000000    -0.113187   
N36      N      0.431470000000     0.941490000000     0.985570000000    -0.153585   
N37      N      0.077280000000     0.644150000000     0.193230000000    -0.157395   
N38      N      0.041400000000     0.678670000000     0.232520000000    -0.110577   
N39      N      0.957480000000     0.759180000000     0.282880000000    -0.113227   
N40      N      0.920800000000     0.791950000000     0.323000000000    -0.153621   
N41      N      0.336210000000     0.820960000000     0.992990000000    -0.157568   
N42      N      0.298880000000     0.777550000000     0.018260000000    -0.110597   
N43      N      0.210060000000     0.689710000000     0.033890000000    -0.113484   
N44      N      0.171280000000     0.648650000000     0.060960000000    -0.153757   
N45      N      0.184970000000     0.553580000000     0.192350000000    -0.157533   
N46      N      0.223660000000     0.521870000000     0.231610000000    -0.110524   
N47      N      0.299150000000     0.436660000000     0.286690000000    -0.113349   
N48      N      0.333710000000     0.404640000000     0.329410000000    -0.153748   
N49      N      0.105240000000     0.131120000000     0.688970000000    -0.157998   
N50      N      0.067160000000     0.168830000000     0.722300000000    -0.110622   
N51      N      0.978700000000     0.253210000000     0.753670000000    -0.113359   
N52      N      0.940710000000     0.290940000000     0.786740000000    -0.153967   
N53      N      0.702240000000     0.186840000000     0.100990000000    -0.157275   
N54      N      0.738060000000     0.217190000000     0.057760000000    -0.110569   
N55      N      0.823740000000     0.249540000000     0.965090000000    -0.113381   
N56      N      0.856200000000     0.280270000000     0.919630000000    -0.153841   
N57      N      0.824950000000     0.388600000000     0.809310000000    -0.157797   
N58      N      0.784880000000     0.429440000000     0.783640000000    -0.110614   
N59      N      0.724360000000     0.532960000000     0.749980000000    -0.11334    
N60      N      0.684600000000     0.573140000000     0.722960000000    -0.153578   
N61      N      0.950640000000     0.398520000000     0.901720000000    -0.157377   
N62      N      0.986400000000     0.435740000000     0.938260000000    -0.110461   
N63      N      0.040570000000     0.498960000000     0.037060000000    -0.113132   
N64      N      0.074730000000     0.537040000000     0.073900000000    -0.153597   
O1       O      0.871970000000     0.367140000000     0.811040000000    -0.25435    
O2       O      0.857600000000     0.302170000000     0.871880000000    -0.248344   
O3       O      0.905720000000     0.386300000000     0.877900000000    -0.253672   
O4       O      0.934800000000     0.330910000000     0.817530000000    -0.250598   
O5       O      0.901500000000     0.297560000000     0.821160000000    -0.253164   
O6       O      0.939980000000     0.353700000000     0.881930000000    -0.248445   
O7       O      0.843500000000     0.363560000000     0.851250000000    -0.251023   
O8       O      0.890060000000     0.315710000000     0.905950000000    -0.25397    
O9       O      0.166910000000     0.606700000000     0.088820000000    -0.250685   
O10      O      0.138600000000     0.561560000000     0.169490000000    -0.252615   
O11      O      0.083030000000     0.581270000000     0.096090000000    -0.251675   
O12      O      0.082450000000     0.606500000000     0.159070000000    -0.249646   
O13      O      0.119450000000     0.636270000000     0.162880000000    -0.251063   
O14      O      0.117690000000     0.549290000000     0.101210000000    -0.253532   
O15      O      0.133200000000     0.639280000000     0.096040000000    -0.251727   
O16      O      0.176900000000     0.584680000000     0.151610000000    -0.250269   
O17      O      0.341020000000     0.865510000000     0.970430000000    -0.250117   
O18      O      0.419600000000     0.917770000000     0.940400000000    -0.250158   
O19      O      0.333420000000     0.884860000000     0.902940000000    -0.251039   
O20      O      0.394690000000     0.860000000000     0.882840000000    -0.254447   
O21      O      0.426810000000     0.853840000000     0.919660000000    -0.249927   
O22      O      0.358780000000     0.923740000000     0.909180000000    -0.253291   
O23      O      0.374480000000     0.833690000000     0.959300000000    -0.253958   
O24      O      0.395070000000     0.906220000000     0.981540000000    -0.252369   
O25      O      0.642590000000     0.098220000000     0.120570000000    -0.249221   
O26      O      0.641710000000     0.170110000000     0.199770000000    -0.2513     
O27      O      0.663590000000     0.155310000000     0.112470000000    -0.249387   
O28      O      0.701210000000     0.104690000000     0.175580000000    -0.25346    
O29      O      0.670740000000     0.112390000000     0.213530000000    -0.251032   
O30      O      0.695970000000     0.164680000000     0.148260000000    -0.250683   
O31      O      0.617760000000     0.092250000000     0.162950000000    -0.25183    
O32      O      0.605770000000     0.156600000000     0.169570000000    -0.252717   
O33      O      0.376980000000     0.336750000000     0.450100000000    -0.255179   
O34      O      0.424700000000     0.403080000000     0.414030000000    -0.249043   
O35      O      0.336610000000     0.377300000000     0.373770000000    -0.247977   
O36      O      0.428580000000     0.340820000000     0.399610000000    -0.248885   
O37      O      0.390430000000     0.327840000000     0.372020000000    -0.256365   
O38      O      0.376910000000     0.399080000000     0.358730000000    -0.254752   
O39      O      0.336400000000     0.359080000000     0.436750000000    -0.246535   
O40      O      0.385530000000     0.410000000000     0.442610000000    -0.255182   
O41      O      0.601990000000     0.641240000000     0.722740000000    -0.248299   
O42      O      0.575530000000     0.585880000000     0.662910000000    -0.253079   
O43      O      0.636540000000     0.591750000000     0.717600000000    -0.249134   
O44      O      0.653410000000     0.658870000000     0.662660000000    -0.252878   
O45      O      0.621120000000     0.650310000000     0.626600000000    -0.252999   
O46      O      0.668130000000     0.598520000000     0.680390000000    -0.250935   
O47      O      0.570920000000     0.646900000000     0.684850000000    -0.250719   
O48      O      0.613290000000     0.583340000000     0.631680000000    -0.253464   
O49      O      0.856120000000     0.865420000000     0.346730000000    -0.255702   
O50      O      0.916690000000     0.844400000000     0.422080000000    -0.247991   
O51      O      0.879800000000     0.796360000000     0.355690000000    -0.252768   
O52      O      0.827190000000     0.803270000000     0.401230000000    -0.250213   
O53      O      0.861190000000     0.804420000000     0.436790000000    -0.254636   
O54      O      0.914000000000     0.829150000000     0.357410000000    -0.248394   
O55      O      0.826920000000     0.869530000000     0.386310000000    -0.249309   
O56      O      0.881940000000     0.876380000000     0.427010000000    -0.253479   
O57      O      0.143650000000     0.124700000000     0.653520000000    -0.254013   
O58      O      0.103110000000     0.073670000000     0.590880000000    -0.250131   
O59      O      0.163610000000     0.037820000000     0.644850000000    -0.251058   
O60      O      0.195390000000     0.099560000000     0.589180000000    -0.249323   
O61      O      0.154320000000     0.123240000000     0.581570000000    -0.252994   
O62      O      0.196380000000     0.071700000000     0.648830000000    -0.249135   
O63      O      0.110220000000     0.091460000000     0.657460000000    -0.252698   
O64      O      0.139630000000     0.044320000000     0.581840000000    -0.25098    
S1       S      0.952740000000     0.852430000000     0.495670000000    -0.000404523
S2       S      0.671520000000     0.733680000000     0.641950000000    -0.00460292 
S3       S      0.173120000000     0.149390000000     0.503260000000    -0.00414204 
S4       S      0.397060000000     0.485960000000     0.459560000000    -0.00330398 
S5       S      0.758470000000     0.886710000000     0.348410000000     0.000235498
S6       S      0.562790000000     0.221680000000     0.167530000000    -0.00176582 
S7       S      0.263360000000     0.028730000000     0.660650000000     4.05242e-05
S8       S      0.494170000000     0.850360000000     0.874400000000    -0.000870062
S9       S      0.602370000000     0.016320000000     0.154300000000    -0.0045172  
S10      S      0.108950000000     0.659040000000     0.239460000000    -3.98068e-05
S11      S      0.317610000000     0.837190000000     0.045700000000    -0.00148523 
S12      S      0.163070000000     0.553820000000     0.246610000000    -0.000146243
S13      S      0.135760000000     0.154060000000     0.732090000000    -0.00492751 
S14      S      0.716010000000     0.235050000000     0.124020000000    -0.00075271 
S15      S      0.771500000000     0.369070000000     0.812530000000    -0.00134931 
S16      S      0.953120000000     0.446950000000     0.875290000000    -0.000953587


