data_structure

_audit_creation_method RASPA-1.0
_audit_creation_date 2023-5-22
_audit_author_name 'Poobodin Mano'

_cell_length_a    45.0008
_cell_length_b    44.8461
_cell_length_c    44.6887
_cell_angle_alpha 90
_cell_angle_beta  90
_cell_angle_gamma 90
_cell_volume      90186.7

_symmetry_cell_setting          triclinic
_symmetry_space_group_name_Hall 'P 1'
_symmetry_space_group_name_H-M  'P 1'
_symmetry_Int_Tables_number     1

_symmetry_equiv_pos_as_xyz 'x,y,z'

loop_
_atom_site_label
_atom_site_type_symbol
_atom_site_fract_x
_atom_site_fract_y
_atom_site_fract_z
_atom_site_charge
C1       C      0.916220000000     0.394910000000     0.901300000000     0.338366   
C2       C      0.850250000000     0.410820000000     0.828190000000     0.337806   
C3       C      0.913000000000     0.322510000000     0.821660000000     0.338359   
C4       C      0.840220000000     0.319890000000     0.887260000000     0.338608   
C5       C      0.132300000000     0.664400000000     0.110970000000     0.339605   
C6       C      0.076070000000     0.571830000000     0.100560000000     0.338035   
C7       C      0.144170000000     0.574880000000     0.171270000000     0.338242   
C8       C      0.062700000000     0.644220000000     0.179460000000     0.337673   
C9       C      0.321040000000     0.810440000000     0.917320000000     0.339528   
C10      C      0.333740000000     0.895190000000     0.848320000000     0.337965   
C11      C      0.397110000000     0.885970000000     0.924690000000     0.337904   
C12      C      0.395160000000     0.806730000000     0.852590000000     0.337357   
C13      C      0.645340000000     0.169970000000     0.075260000000     0.337776   
C14      C      0.564750000000     0.099050000000     0.073130000000     0.339516   
C15      C      0.636400000000     0.082940000000     0.140360000000     0.337393   
C16      C      0.581370000000     0.174890000000     0.149490000000     0.339205   
C17      C      0.351370000000     0.427310000000     0.342450000000     0.339398   
C18      C      0.396100000000     0.324780000000     0.340680000000     0.340235   
C19      C      0.426260000000     0.397710000000     0.405430000000     0.338401   
C20      C      0.325730000000     0.350840000000     0.406480000000     0.338287   
C21      C      0.661310000000     0.579460000000     0.651050000000     0.338466   
C22      C      0.587210000000     0.654760000000     0.662510000000     0.337655   
C23      C      0.659380000000     0.673580000000     0.595190000000     0.339584   
C24      C      0.592950000000     0.589750000000     0.578470000000     0.339344   
C25      C      0.896270000000     0.856670000000     0.329100000000     0.340344   
C26      C      0.821380000000     0.931450000000     0.335420000000     0.337595   
C27      C      0.825290000000     0.843410000000     0.398340000000     0.337279   
C28      C      0.888010000000     0.930000000000     0.410020000000     0.339451   
C29      C      0.108260000000     0.165790000000     0.642540000000     0.33997    
C30      C      0.169160000000     0.073700000000     0.653870000000     0.337796   
C31      C      0.092790000000     0.083050000000     0.584380000000     0.337021   
C32      C      0.184960000000     0.143710000000     0.580890000000     0.338616   
C33      C      0.944340000000     0.983380000000     0.437930000000    -0.0282117  
C34      C      0.045640000000     0.054060000000     0.521740000000    -0.0280738  
C35      C      0.047240000000     0.053020000000     0.587090000000    -0.0109412  
C36      C      0.064250000000     0.077440000000     0.538060000000    -0.0110625  
C37      C      0.970420000000     0.042590000000     0.517920000000    -0.0529659  
C38      C      0.982790000000     0.986210000000     0.494240000000    -0.055223   
C39      C      0.998010000000     0.029320000000     0.523570000000     0.0624082  
C40      C      0.029390000000     0.031150000000     0.567850000000    -0.0282093  
C41      C      0.955260000000     0.999920000000     0.488180000000     0.0625809  
C42      C      0.921920000000     0.958050000000     0.480270000000    -0.0283153  
C43      C      0.949240000000     0.028030000000     0.500380000000    -0.0532422  
C44      C      0.895100000000     0.948230000000     0.461610000000    -0.0109485  
C45      C      0.918630000000     0.974900000000     0.417280000000    -0.010932   
C46      C      0.004030000000     0.000820000000     0.511780000000    -0.0550046  
C47      C      0.678480000000     0.727360000000     0.537100000000    -0.0285635  
C48      C      0.807090000000     0.790930000000     0.458440000000    -0.0284733  
C49      C      0.778040000000     0.816320000000     0.405970000000    -0.0110118  
C50      C      0.825440000000     0.798700000000     0.430690000000    -0.0109331  
C51      C      0.752840000000     0.788460000000     0.499740000000    -0.0553708  
C52      C      0.733140000000     0.729380000000     0.496460000000    -0.0554396  
C53      C      0.759650000000     0.771130000000     0.474350000000     0.0623869  
C54      C      0.761420000000     0.807870000000     0.434630000000    -0.0284589  
C55      C      0.726260000000     0.746730000000     0.521810000000     0.0624748  
C56      C      0.723740000000     0.709970000000     0.561500000000    -0.02858    
C57      C      0.736270000000     0.776270000000     0.523200000000    -0.0528003  
C58      C      0.706560000000     0.701440000000     0.589820000000    -0.0107622  
C59      C      0.659740000000     0.719510000000     0.564560000000    -0.0108018  
C60      C      0.749690000000     0.741570000000     0.472990000000    -0.0526981  
C61      C      0.231120000000     0.206030000000     0.558980000000    -0.0286345  
C62      C      0.276750000000     0.290590000000     0.426110000000    -0.0287483  
C63      C      0.297960000000     0.345330000000     0.454030000000    -0.0106966  
C64      C      0.280810000000     0.318950000000     0.407510000000    -0.0107034  
C65      C      0.282850000000     0.249720000000     0.480800000000    -0.0553843  
C66      C      0.225130000000     0.245320000000     0.503610000000    -0.0555033  
C67      C      0.262090000000     0.272480000000     0.474870000000     0.0625805  
C68      C      0.293360000000     0.316300000000     0.471420000000    -0.0287265  
C69      C      0.245990000000     0.222720000000     0.509800000000     0.0626732  
C70      C      0.215530000000     0.178410000000     0.514530000000    -0.0287099  
C71      C      0.274780000000     0.225120000000     0.498180000000    -0.0528296  
C72      C      0.211640000000     0.149790000000     0.532800000000    -0.0107697  
C73      C      0.227760000000     0.178280000000     0.578570000000    -0.0108688  
C74      C      0.233230000000     0.269980000000     0.486310000000    -0.0527883  
C75      C      0.464600000000     0.433060000000     0.467330000000    -0.0287038  
C76      C      0.573490000000     0.547590000000     0.509640000000    -0.0285586  
C77      C      0.548200000000     0.559930000000     0.568480000000    -0.0109015  
C78      C      0.582210000000     0.576280000000     0.526050000000    -0.0109737  
C79      C      0.545480000000     0.486640000000     0.498790000000    -0.0555038  
C80      C      0.491650000000     0.495940000000     0.468900000000    -0.0553807  
C81      C      0.531590000000     0.514750000000     0.500180000000     0.0626153  
C82      C      0.541430000000     0.531890000000     0.550370000000    -0.0281716  
C83      C      0.505490000000     0.467800000000     0.467530000000     0.0625403  
C84      C      0.487140000000     0.448780000000     0.420170000000    -0.0287611  
C85      C      0.532510000000     0.463450000000     0.482470000000    -0.0529746  
C86      C      0.476410000000     0.420410000000     0.404490000000    -0.0107814  
C87      C      0.453320000000     0.404150000000     0.453180000000    -0.0108096  
C88      C      0.504720000000     0.519170000000     0.485020000000    -0.052746   
C89      C      0.753350000000     0.966930000000     0.306370000000    -0.0284973  
C90      C      0.699770000000     0.041880000000     0.170040000000    -0.0287193  
C91      C      0.635940000000     0.045080000000     0.180630000000    -0.0108777  
C92      C      0.678480000000     0.047580000000     0.143950000000    -0.0107561  
C93      C      0.719880000000     0.035280000000     0.235080000000    -0.0554464  
C94      C      0.730470000000     0.974210000000     0.242160000000    -0.0554608  
C95      C      0.705180000000     0.014670000000     0.216460000000     0.0624134  
C96      C      0.658640000000     0.039530000000     0.205520000000    -0.028511   
C97      C      0.745320000000     0.994840000000     0.260630000000     0.0624468  
C98      C      0.792760000000     0.971010000000     0.269330000000    -0.0284379  
C99      C      0.739760000000     0.025350000000     0.256940000000    -0.0526702  
C100     C      0.816790000000     0.966410000000     0.293060000000    -0.0109147  
C101     C      0.775790000000     0.961950000000     0.331670000000    -0.0109827  
C102     C      0.710590000000     0.984150000000     0.220280000000    -0.0527822  
C103     C      0.553270000000     0.204110000000     0.220180000000    -0.0286996  
C104     C      0.424280000000     0.288640000000     0.274700000000    -0.0288165  
C105     C      0.426180000000     0.278550000000     0.339070000000    -0.0104588  
C106     C      0.396960000000     0.294930000000     0.294050000000    -0.0104163  
C107     C      0.489410000000     0.275380000000     0.260910000000    -0.0554376  
C108     C      0.488880000000     0.217300000000     0.238100000000    -0.0555072  
C109     C      0.466350000000     0.255710000000     0.268970000000     0.0626698  
C110     C      0.452750000000     0.272710000000     0.318540000000    -0.0287679  
C111     C      0.511750000000     0.237090000000     0.229800000000     0.0626663  
C112     C      0.522580000000     0.222210000000     0.178990000000    -0.0284466  
C113     C      0.511860000000     0.266050000000     0.241470000000    -0.0527879  
C114     C      0.547950000000     0.218010000000     0.156680000000    -0.010734   
C115     C      0.579720000000     0.199120000000     0.199200000000    -0.0106778  
C116     C      0.466400000000     0.226640000000     0.257530000000    -0.0529038  
C117     C      0.225750000000     0.018490000000     0.682060000000    -0.0279985  
C118     C      0.311690000000     0.936700000000     0.779890000000    -0.0282172  
C119     C      0.298770000000     0.937190000000     0.843900000000    -0.0111292  
C120     C      0.334860000000     0.924600000000     0.801800000000    -0.0109948  
C121     C      0.282050000000     0.006950000000     0.768900000000    -0.0530982  
C122     C      0.235320000000     0.979840000000     0.737820000000    -0.0551532  
C123     C      0.276090000000     0.976660000000     0.773510000000     0.0625873  
C124     C      0.277370000000     0.948700000000     0.819940000000    -0.0281446  
C125     C      0.241420000000     0.010310000000     0.733320000000     0.0626697  
C126     C      0.193030000000     0.031590000000     0.722690000000    -0.0278217  
C127     C      0.264870000000     0.023620000000     0.748980000000    -0.0529895  
C128     C      0.178410000000     0.056860000000     0.705090000000    -0.0109893  
C129     C      0.213310000000     0.042770000000     0.661530000000    -0.0108999  
C130     C      0.252570000000     0.963110000000     0.757740000000    -0.055202   
C131     C      0.461430000000     0.765640000000     0.825920000000    -0.0281774  
C132     C      0.558470000000     0.695790000000     0.729750000000    -0.0281032  
C133     C      0.535790000000     0.666560000000     0.675960000000    -0.0109204  
C134     C      0.578560000000     0.673650000000     0.713310000000    -0.0109818  
C135     C      0.503840000000     0.733980000000     0.744250000000    -0.0552144  
C136     C      0.471030000000     0.700750000000     0.785670000000    -0.0531294  
C137     C      0.507450000000     0.702820000000     0.745680000000     0.0627118  
C138     C      0.518360000000     0.689250000000     0.694430000000    -0.0279977  
C139     C      0.467290000000     0.731700000000     0.784340000000     0.0626275  
C140     C      0.422000000000     0.760650000000     0.789210000000    -0.0282747  
C141     C      0.483920000000     0.748330000000     0.763480000000    -0.0551615  
C142     C      0.398210000000     0.769720000000     0.811920000000    -0.0109406  
C143     C      0.439570000000     0.774770000000     0.850440000000    -0.0110299  
C144     C      0.490930000000     0.686430000000     0.766510000000    -0.0530618  
C145     C      0.416220000000     0.941970000000     0.981960000000    -0.0286343  
C146     C      0.538470000000     0.044520000000     0.017950000000    -0.0284492  
C147     C      0.513200000000     0.082020000000     0.064770000000    -0.0108911  
C148     C      0.552680000000     0.074650000000     0.025120000000    -0.0108892  
C149     C      0.470370000000     0.022350000000     0.990500000000    -0.0529528  
C150     C      0.482870000000     0.965750000000     0.013570000000    -0.0527119  
C151     C      0.491230000000     0.019350000000     0.013550000000     0.0626051  
C152     C      0.500450000000     0.051600000000     0.056070000000    -0.0286015  
C153     C      0.462230000000     0.968720000000     0.990300000000     0.0624509  
C154     C      0.457170000000     0.937160000000     0.946760000000    -0.0283578  
C155     C      0.455940000000     0.997300000000     0.978890000000    -0.055431   
C156     C      0.446570000000     0.906400000000     0.936660000000    -0.01112    
C157     C      0.403790000000     0.911400000000     0.973240000000    -0.0109171  
C158     C      0.497310000000     0.990790000000     0.025170000000    -0.0554958  
C159     C      0.998950000000     0.690570000000     0.199910000000    -0.0287906  
C160     C      0.958290000000     0.808250000000     0.306940000000    -0.0286243  
C161     C      0.903110000000     0.830460000000     0.280990000000    -0.0108123  
C162     C      0.946580000000     0.839010000000     0.315900000000    -0.0107405  
C163     C      0.982970000000     0.777130000000     0.240830000000    -0.0527921  
C164     C      0.972300000000     0.721170000000     0.266270000000    -0.0528185  
C165     C      0.963260000000     0.774650000000     0.264950000000     0.0625426  
C166     C      0.916490000000     0.800050000000     0.273350000000    -0.0284704  
C167     C      0.992000000000     0.723650000000     0.242140000000     0.0625062  
C168     C      0.038980000000     0.698220000000     0.235840000000    -0.0284835  
C169     C      0.997310000000     0.751920000000     0.229470000000    -0.0555094  
C170     C      0.052720000000     0.667940000000     0.228350000000    -0.0110118  
C171     C      0.011310000000     0.660050000000     0.190980000000    -0.0108222  
C172     C      0.958030000000     0.746400000000     0.277680000000    -0.0554595  
C173     C      0.250530000000     0.780150000000     0.945980000000    -0.0285541  
C174     C      0.195310000000     0.704600000000     0.080880000000    -0.0287717  
C175     C      0.131060000000     0.704360000000     0.072720000000    -0.010655   
C176     C      0.174720000000     0.699370000000     0.107600000000    -0.0105713  
C177     C      0.208140000000     0.762310000000     0.032000000000    -0.0529126  
C178     C      0.232840000000     0.720400000000     0.992890000000    -0.052763   
C179     C      0.200360000000     0.732200000000     0.034790000000     0.0625737  
C180     C      0.152960000000     0.709550000000     0.047030000000    -0.028702   
C181     C      0.240780000000     0.750470000000     0.990240000000     0.0625187  
C182     C      0.290180000000     0.769720000000     0.981500000000    -0.0283972  
C183     C      0.228210000000     0.771470000000     0.009970000000    -0.0553866  
C184     C      0.313970000000     0.773270000000     0.957370000000    -0.0108086  
C185     C      0.272760000000     0.784360000000     0.920390000000    -0.0108226  
C186     C      0.212850000000     0.711230000000     0.014970000000    -0.0553763  
C187     C      0.291970000000     0.476700000000     0.321420000000    -0.0288019  
C188     C      0.214370000000     0.536860000000     0.190030000000    -0.0285231  
C189     C      0.155710000000     0.545450000000     0.216430000000    -0.0109247  
C190     C      0.187320000000     0.540930000000     0.169680000000    -0.0108639  
C191     C      0.233470000000     0.483910000000     0.244230000000    -0.0527429  
C192     C      0.274830000000     0.525570000000     0.265090000000    -0.0528132  
C193     C      0.230290000000     0.513990000000     0.236470000000     0.0625992  
C194     C      0.184050000000     0.541410000000     0.234850000000    -0.0282941  
C195     C      0.278050000000     0.495470000000     0.272800000000     0.0625334  
C196     C      0.322220000000     0.464830000000     0.277510000000    -0.0287933  
C197     C      0.257040000000     0.474650000000     0.262320000000    -0.0553242  
C198     C      0.349500000000     0.459180000000     0.297180000000    -0.0106518  
C199     C      0.318460000000     0.471560000000     0.342260000000    -0.0106568  
C200     C      0.251120000000     0.534880000000     0.247170000000    -0.0554991  
C201     C      0.076980000000     0.208610000000     0.703910000000    -0.0287061  
C202     C      0.942600000000     0.287890000000     0.752920000000    -0.0284586  
C203     C      0.954220000000     0.286610000000     0.817120000000    -0.010885   
C204     C      0.917110000000     0.293390000000     0.774940000000    -0.0109266  
C205     C      0.006640000000     0.278340000000     0.731500000000    -0.0554924  
C206     C      0.011700000000     0.217180000000     0.720270000000    -0.0554167  
C207     C      0.987000000000     0.258240000000     0.745480000000     0.0625568  
C208     C      0.978150000000     0.281560000000     0.793410000000    -0.0283876  
C209     C      0.031620000000     0.237220000000     0.706610000000     0.0625332  
C210     C      0.044370000000     0.212060000000     0.660380000000    -0.0287408  
C211     C      0.028740000000     0.267810000000     0.712240000000    -0.0528159  
C212     C      0.070240000000     0.205530000000     0.639120000000    -0.01067    
C213     C      0.103880000000     0.201980000000     0.684080000000    -0.0106532  
C214     C      0.989630000000     0.227700000000     0.739550000000    -0.0528406  
C215     C      0.770360000000     0.287380000000     0.914550000000    -0.0286394  
C216     C      0.714150000000     0.201940000000     0.043520000000    -0.028552   
C217     C      0.650120000000     0.207110000000     0.034910000000    -0.0109405  
C218     C      0.693210000000     0.196270000000     0.069910000000    -0.010898   
C219     C      0.729890000000     0.263530000000     0.999810000000    -0.0529518  
C220     C      0.752840000000     0.224350000000     0.956950000000    -0.0527285  
C221     C      0.721320000000     0.233510000000     0.000220000000     0.0627623  
C222     C      0.672850000000     0.212220000000     0.010030000000    -0.0282053  
C223     C      0.761410000000     0.254370000000     0.956530000000     0.062475   
C224     C      0.810880000000     0.273390000000     0.947830000000    -0.028413   
C225     C      0.749810000000     0.273950000000     0.978230000000    -0.0553272  
C226     C      0.833960000000     0.278700000000     0.923330000000    -0.0107851  
C227     C      0.791960000000     0.293560000000     0.888790000000    -0.0107906  
C228     C      0.732990000000     0.213890000000     0.978600000000    -0.0556561  
C229     C      0.693030000000     0.537830000000     0.714340000000    -0.0284323  
C230     C      0.823910000000     0.453270000000     0.763390000000    -0.0285574  
C231     C      0.811630000000     0.450030000000     0.827380000000    -0.0108823  
C232     C      0.848910000000     0.445610000000     0.785300000000    -0.0108612  
C233     C      0.760400000000     0.465110000000     0.741850000000    -0.0554175  
C234     C      0.757410000000     0.526810000000     0.733110000000    -0.0554911  
C235     C      0.780130000000     0.483990000000     0.757350000000     0.0624572  
C236     C      0.788000000000     0.457570000000     0.803950000000    -0.0285719  
C237     C      0.737540000000     0.507940000000     0.717800000000     0.0624588  
C238     C      0.727200000000     0.535490000000     0.672230000000    -0.0285329  
C239     C      0.739320000000     0.477080000000     0.722280000000    -0.0527436  
C240     C      0.702390000000     0.542900000000     0.649960000000    -0.0108713  
C241     C      0.666830000000     0.545160000000     0.693850000000    -0.0109738  
C242     C      0.778490000000     0.514830000000     0.752700000000    -0.0527733  
C243     C      0.940870000000     0.433180000000     0.971340000000    -0.0280886  
C244     C      0.020820000000     0.517930000000     0.069920000000    -0.0281141  
C245     C      0.077840000000     0.544110000000     0.053150000000    -0.0109591  
C246     C      0.041100000000     0.530190000000     0.094460000000    -0.0109732  
C247     C      0.027960000000     0.459030000000     0.021060000000    -0.0531605  
C248     C      0.982710000000     0.484590000000     0.986650000000    -0.0551979  
C249     C      0.021800000000     0.489480000000     0.023970000000     0.0626649  
C250     C      0.055670000000     0.531020000000     0.030790000000    -0.0281603  
C251     C      0.988940000000     0.453930000000     0.983930000000     0.0625179  
C252     C      0.976830000000     0.442810000000     0.932280000000    -0.0282336  
C253     C      0.011660000000     0.441410000000     0.001230000000    -0.0528353  
C254     C      0.964470000000     0.417980000000     0.912390000000    -0.0109409  
C255     C      0.926360000000     0.407860000000     0.953690000000    -0.0111308  
C256     C      0.998960000000     0.502230000000     0.006610000000    -0.055237   
Cd1      Cd     0.879520000000     0.362610000000     0.859350000000     0.50585    
Cd2      Cd     0.103950000000     0.614380000000     0.140110000000     0.505883   
Cd3      Cd     0.360810000000     0.849980000000     0.885560000000     0.505784   
Cd4      Cd     0.606970000000     0.131260000000     0.109560000000     0.505904   
Cd5      Cd     0.374880000000     0.375870000000     0.373500000000     0.505939   
Cd6      Cd     0.626310000000     0.624670000000     0.621220000000     0.505501   
Cd7      Cd     0.858090000000     0.890270000000     0.368700000000     0.505331   
Cd8      Cd     0.138630000000     0.115660000000     0.615630000000     0.505339   
H1       H      0.025260000000     0.990180000000     0.515700000000     0.0426754  
H2       H      0.953880000000     0.004870000000     0.429950000000     0.0372272  
H3       H      0.914660000000     0.960670000000     0.503940000000     0.0371055  
H4       H      0.031650000000     0.069450000000     0.597140000000     0.0450827  
H5       H      0.903420000000     0.994350000000     0.415270000000     0.0430951  
H6       H      0.038230000000     0.063720000000     0.500030000000     0.0372335  
H7       H      0.009680000000     0.023680000000     0.580900000000     0.037075   
H8       H      0.085450000000     0.080550000000     0.525630000000     0.0481702  
H9       H      0.888380000000     0.925470000000     0.468810000000     0.0476832  
H10      H      0.987990000000     0.964520000000     0.485000000000     0.0429761  
H11      H      0.927720000000     0.970210000000     0.394620000000     0.048492   
H12      H      0.965540000000     0.064540000000     0.526760000000     0.0476229  
H13      H      0.961980000000     0.966010000000     0.436470000000     0.0407674  
H14      H      0.057660000000     0.040510000000     0.605850000000     0.0465621  
H15      H      0.876230000000     0.963510000000     0.466390000000     0.0434581  
H16      H      0.059630000000     0.034160000000     0.516820000000     0.039529   
H17      H      0.043270000000     0.011190000000     0.562880000000     0.0389912  
H18      H      0.928210000000     0.038860000000     0.495850000000     0.0474739  
H19      H      0.939300000000     0.940380000000     0.479470000000     0.040428   
H20      H      0.052210000000     0.099090000000     0.537460000000     0.0458203  
H21      H      0.754770000000     0.727980000000     0.453620000000     0.0469695  
H22      H      0.667950000000     0.746660000000     0.525570000000     0.0374137  
H23      H      0.746720000000     0.716420000000     0.568060000000     0.0373767  
H24      H      0.775730000000     0.797750000000     0.389640000000     0.0424944  
H25      H      0.656800000000     0.740000000000     0.578260000000     0.0420863  
H26      H      0.817910000000     0.771810000000     0.470000000000     0.0372493  
H27      H      0.738350000000     0.801310000000     0.428520000000     0.0373404  
H28      H      0.847750000000     0.806490000000     0.437970000000     0.0484662  
H29      H      0.717030000000     0.681360000000     0.599900000000     0.048418   
H30      H      0.725650000000     0.706510000000     0.494790000000     0.0437451  
H31      H      0.637390000000     0.712150000000     0.556980000000     0.0485681  
H32      H      0.760280000000     0.811350000000     0.501370000000     0.0435782  
H33      H      0.678490000000     0.708060000000     0.521410000000     0.0420315  
H34      H      0.767380000000     0.836390000000     0.396080000000     0.048754   
H35      H      0.708510000000     0.720000000000     0.606210000000     0.0423142  
H36      H      0.807100000000     0.810360000000     0.473980000000     0.0416372  
H37      H      0.760210000000     0.827730000000     0.449550000000     0.0416189  
H38      H      0.731140000000     0.789880000000     0.542540000000     0.0469799  
H39      H      0.725140000000     0.690170000000     0.546520000000     0.0418632  
H40      H      0.828580000000     0.778080000000     0.417230000000     0.0421124  
H41      H      0.217010000000     0.287260000000     0.481850000000     0.0469131  
H42      H      0.249080000000     0.220180000000     0.568550000000     0.0374412  
H43      H      0.222030000000     0.172190000000     0.491320000000     0.0375527  
H44      H      0.277630000000     0.359210000000     0.456440000000     0.041963   
H45      H      0.249860000000     0.167380000000     0.580610000000     0.0420498  
H46      H      0.258280000000     0.277350000000     0.416200000000     0.0373545  
H47      H      0.287100000000     0.321970000000     0.494830000000     0.0376367  
H48      H      0.287420000000     0.312650000000     0.384390000000     0.0479988  
H49      H      0.193000000000     0.136640000000     0.523170000000     0.0491504  
H50      H      0.202720000000     0.243990000000     0.512270000000     0.0437571  
H51      H      0.220650000000     0.185220000000     0.601340000000     0.0482628  
H52      H      0.305260000000     0.251040000000     0.472120000000     0.0439618  
H53      H      0.209990000000     0.218940000000     0.559580000000     0.0418981  
H54      H      0.316820000000     0.357810000000     0.464080000000     0.0492952  
H55      H      0.232250000000     0.136270000000     0.530740000000     0.0425515  
H56      H      0.297460000000     0.277050000000     0.424860000000     0.0422692  
H57      H      0.314720000000     0.303770000000     0.471960000000     0.0426202  
H58      H      0.291030000000     0.207900000000     0.502720000000     0.0471091  
H59      H      0.193890000000     0.190420000000     0.513540000000     0.0420874  
H60      H      0.259080000000     0.330680000000     0.406230000000     0.0416551  
H61      H      0.493620000000     0.540560000000     0.486200000000     0.0473763  
H62      H      0.469050000000     0.428800000000     0.491460000000     0.0374175  
H63      H      0.508270000000     0.456080000000     0.409510000000     0.0373277  
H64      H      0.529650000000     0.576030000000     0.565460000000     0.0445301  
H65      H      0.469610000000     0.386130000000     0.457980000000     0.0423569  
H66      H      0.574550000000     0.551820000000     0.485130000000     0.0372694  
H67      H      0.518640000000     0.524190000000     0.556290000000     0.037165   
H68      H      0.606060000000     0.581010000000     0.521590000000     0.0474094  
H69      H      0.471260000000     0.425720000000     0.380750000000     0.0478691  
H70      H      0.470580000000     0.499820000000     0.457900000000     0.0437391  
H71      H      0.431880000000     0.397930000000     0.463840000000     0.0490922  
H72      H      0.566020000000     0.482510000000     0.510680000000     0.0430045  
H73      H      0.446950000000     0.450400000000     0.465640000000     0.0422858  
H74      H      0.549000000000     0.553810000000     0.592590000000     0.048158   
H75      H      0.494800000000     0.403850000000     0.404690000000     0.0418856  
H76      H      0.589850000000     0.529800000000     0.515170000000     0.0398311  
H77      H      0.557420000000     0.513960000000     0.556610000000     0.0403542  
H78      H      0.543260000000     0.441860000000     0.481850000000     0.046741   
H79      H      0.470270000000     0.466640000000     0.416850000000     0.0414741  
H80      H      0.569050000000     0.595070000000     0.516670000000     0.0441955  
H81      H      0.699450000000     0.968040000000     0.206130000000     0.0468439  
H82      H      0.733420000000     0.978190000000     0.315860000000     0.0372774  
H83      H      0.802090000000     0.985250000000     0.251210000000     0.0373942  
H84      H      0.627040000000     0.023200000000     0.173090000000     0.0417766  
H85      H      0.779370000000     0.983490000000     0.343460000000     0.0427973  
H86      H      0.719500000000     0.029670000000     0.161360000000     0.0374472  
H87      H      0.647960000000     0.025590000000     0.223110000000     0.0372559  
H88      H      0.689560000000     0.062490000000     0.127500000000     0.0487149  
H89      H      0.835410000000     0.953640000000     0.282890000000     0.0488222  
H90      H      0.734420000000     0.950520000000     0.244500000000     0.0434463  
H91      H      0.766140000000     0.945980000000     0.348030000000     0.0484137  
H92      H      0.716110000000     0.058980000000     0.232610000000     0.0438192  
H93      H      0.746320000000     0.944910000000     0.297270000000     0.0411075  
H94      H      0.617130000000     0.058200000000     0.189930000000     0.0485675  
H95      H      0.825580000000     0.988590000000     0.299790000000     0.0430226  
H96      H      0.707420000000     0.063680000000     0.179160000000     0.0421351  
H97      H      0.664980000000     0.061280000000     0.215720000000     0.042014   
H98      H      0.751070000000     0.041470000000     0.270940000000     0.0471155  
H99      H      0.786680000000     0.949030000000     0.259480000000     0.0413733  
H100     H      0.673900000000     0.025980000000     0.132620000000     0.0419548  
H101     H      0.448810000000     0.211290000000     0.263520000000     0.046904   
H102     H      0.561950000000     0.209650000000     0.242830000000     0.0372668  
H103     H      0.508490000000     0.241080000000     0.171210000000     0.0374879  
H104     H      0.413870000000     0.257270000000     0.342160000000     0.0413159  
H105     H      0.594640000000     0.218830000000     0.200640000000     0.0421392  
H106     H      0.416600000000     0.281710000000     0.252060000000     0.0375862  
H107     H      0.466020000000     0.254060000000     0.328120000000     0.0372703  
H108     H      0.384390000000     0.313890000000     0.284220000000     0.0489332  
H109     H      0.538450000000     0.211590000000     0.134640000000     0.0488609  
H110     H      0.488240000000     0.194820000000     0.229340000000     0.0437485  
H111     H      0.592390000000     0.179320000000     0.207010000000     0.0481515  
H112     H      0.489890000000     0.297970000000     0.269420000000     0.0440133  
H113     H      0.540240000000     0.183060000000     0.221830000000     0.0417635  
H114     H      0.434440000000     0.285830000000     0.361350000000     0.0477058  
H115     H      0.559530000000     0.239730000000     0.153810000000     0.0419728  
H116     H      0.437400000000     0.309570000000     0.272350000000     0.0428315  
H117     H      0.467010000000     0.293000000000     0.317940000000     0.0422687  
H118     H      0.529280000000     0.281510000000     0.235230000000     0.0470921  
H119     H      0.508680000000     0.201660000000     0.179340000000     0.0421808  
H120     H      0.382330000000     0.274950000000     0.293580000000     0.0416907  
H121     H      0.247570000000     0.939720000000     0.760910000000     0.0428961  
H122     H      0.249260000000     0.014210000000     0.675590000000     0.0371763  
H123     H      0.191800000000     0.037120000000     0.746950000000     0.0372188  
H124     H      0.310190000000     0.956580000000     0.854310000000     0.0433052  
H125     H      0.230140000000     0.060820000000     0.659420000000     0.0462183  
H126     H      0.323520000000     0.945690000000     0.759950000000     0.0371414  
H127     H      0.263520000000     0.966680000000     0.829970000000     0.0371514  
H128     H      0.345870000000     0.904920000000     0.791470000000     0.0481148  
H129     H      0.153970000000     0.055970000000     0.708800000000     0.0469068  
H130     H      0.217260000000     0.969090000000     0.726000000000     0.0424919  
H131     H      0.210090000000     0.033240000000     0.638770000000     0.0462026  
H132     H      0.300060000000     0.017650000000     0.780860000000     0.0475325  
H133     H      0.213020000000     0.997450000000     0.678720000000     0.0384465  
H134     H      0.285640000000     0.925940000000     0.861700000000     0.0482472  
H135     H      0.186290000000     0.078510000000     0.714280000000     0.0471443  
H136     H      0.297040000000     0.918140000000     0.772340000000     0.0404432  
H137     H      0.262330000000     0.930270000000     0.812860000000     0.040351   
H138     H      0.269770000000     0.047040000000     0.745760000000     0.0482077  
H139     H      0.180490000000     0.010480000000     0.719010000000     0.038577   
H140     H      0.352180000000     0.941930000000     0.805310000000     0.043491   
H141     H      0.493450000000     0.662450000000     0.767780000000     0.0479572  
H142     H      0.480610000000     0.754150000000     0.836640000000     0.0372017  
H143     H      0.411700000000     0.745380000000     0.772540000000     0.0372491  
H144     H      0.527070000000     0.643880000000     0.680900000000     0.0462107  
H145     H      0.434830000000     0.754990000000     0.864680000000     0.0436017  
H146     H      0.564580000000     0.695620000000     0.753890000000     0.0371407  
H147     H      0.494240000000     0.684280000000     0.691970000000     0.0372124  
H148     H      0.601580000000     0.682700000000     0.712880000000     0.0467843  
H149     H      0.381170000000     0.783480000000     0.800310000000     0.0482119  
H150     H      0.458430000000     0.687710000000     0.801640000000     0.0475652  
H151     H      0.450370000000     0.791840000000     0.864840000000     0.0488442  
H152     H      0.516300000000     0.747100000000     0.728260000000     0.042597   
H153     H      0.469900000000     0.785980000000     0.814430000000     0.0407109  
H154     H      0.531620000000     0.670990000000     0.651820000000     0.0475239  
H155     H      0.387010000000     0.749240000000     0.820260000000     0.0432998  
H156     H      0.562470000000     0.718680000000     0.720930000000     0.0388688  
H157     H      0.522450000000     0.712080000000     0.685510000000     0.0391849  
H158     H      0.481470000000     0.772300000000     0.762090000000     0.0429117  
H159     H      0.429990000000     0.780870000000     0.777170000000     0.0405     
H160     H      0.579220000000     0.652470000000     0.726230000000     0.0460818  
H161     H      0.513380000000     0.987850000000     0.042940000000     0.0432816  
H162     H      0.410380000000     0.946370000000     0.005760000000     0.0373258  
H163     H      0.481770000000     0.938070000000     0.944340000000     0.0372545  
H164     H      0.500190000000     0.099670000000     0.053210000000     0.0434489  
H165     H      0.411180000000     0.894750000000     0.990110000000     0.0437363  
H166     H      0.542330000000     0.039530000000     0.993860000000     0.0372488  
H167     H      0.476070000000     0.051890000000     0.060260000000     0.0373136  
H168     H      0.577140000000     0.072740000000     0.022130000000     0.0482271  
H169     H      0.451330000000     0.903880000000     0.912380000000     0.0485397  
H170     H      0.487980000000     0.943890000000     0.022500000000     0.0470617  
H171     H      0.379110000000     0.912400000000     0.974020000000     0.04796    
H172     H      0.465530000000     0.044170000000     0.981320000000     0.0470237  
H173     H      0.405520000000     0.959420000000     0.967890000000     0.0404761  
H174     H      0.510320000000     0.085210000000     0.089280000000     0.0481418  
H175     H      0.459610000000     0.889150000000     0.948800000000     0.0438555  
H176     H      0.549540000000     0.026860000000     0.031490000000     0.0408814  
H177     H      0.510560000000     0.034120000000     0.070540000000     0.0408034  
H178     H      0.440150000000     0.000190000000     0.960860000000     0.0431441  
H179     H      0.447310000000     0.954460000000     0.931880000000     0.0406332  
H180     H      0.544400000000     0.091390000000     0.008770000000     0.0434097  
H181     H      0.943000000000     0.743880000000     0.296410000000     0.0432912  
H182     H      0.974380000000     0.690140000000     0.197100000000     0.0374553  
H183     H      0.044080000000     0.703520000000     0.259630000000     0.0373654  
H184     H      0.909580000000     0.846600000000     0.263250000000     0.0433331  
H185     H      0.999100000000     0.642570000000     0.203650000000     0.0431771  
H186     H      0.982970000000     0.808570000000     0.308540000000     0.0373707  
H187     H      0.910140000000     0.794260000000     0.249980000000     0.0372719  
H188     H      0.952030000000     0.843000000000     0.339840000000     0.0482328  
H189     H      0.077290000000     0.669720000000     0.230250000000     0.0486651  
H190     H      0.968110000000     0.699590000000     0.276300000000     0.0469996  
H191     H      0.007010000000     0.656380000000     0.166760000000     0.0485119  
H192     H      0.987270000000     0.798720000000     0.230880000000     0.047084   
H193     H      0.008190000000     0.707820000000     0.184580000000     0.041185   
H194     H      0.878480000000     0.828540000000     0.280740000000     0.0480152  
H195     H      0.045030000000     0.651400000000     0.245200000000     0.0433463  
H196     H      0.949720000000     0.791290000000     0.322980000000     0.0410908  
H197     H      0.906900000000     0.782910000000     0.288580000000     0.0407528  
H198     H      0.012540000000     0.754480000000     0.210920000000     0.0434592  
H199     H      0.049360000000     0.715650000000     0.221500000000     0.0412114  
H200     H      0.958340000000     0.856190000000     0.302420000000     0.0434104  
H201     H      0.207380000000     0.687800000000     0.016750000000     0.043962   
H202     H      0.229330000000     0.771600000000     0.936440000000     0.0373869  
H203     H      0.298400000000     0.753490000000     0.998440000000     0.037309   
H204     H      0.123570000000     0.726400000000     0.081250000000     0.0414754  
H205     H      0.273860000000     0.763330000000     0.907260000000     0.0428959  
H206     H      0.215840000000     0.715780000000     0.089070000000     0.0373888  
H207     H      0.142240000000     0.724430000000     0.030270000000     0.0374457  
H208     H      0.185800000000     0.683930000000     0.123550000000     0.0483938  
H209     H      0.334090000000     0.783330000000     0.967700000000     0.0485231  
H210     H      0.242470000000     0.703990000000     0.977990000000     0.0471812  
H211     H      0.264420000000     0.802190000000     0.905270000000     0.0482787  
H212     H      0.198830000000     0.778650000000     0.047170000000     0.0468898  
H213     H      0.246040000000     0.802180000000     0.956560000000     0.0411378  
H214     H      0.111250000000     0.692400000000     0.063940000000     0.0483896  
H215     H      0.320160000000     0.750760000000     0.948990000000     0.0425904  
H216     H      0.201670000000     0.682660000000     0.071100000000     0.0425505  
H217     H      0.157820000000     0.687810000000     0.036050000000     0.0422798  
H218     H      0.234140000000     0.794810000000     0.008550000000     0.0435134  
H219     H      0.286650000000     0.791550000000     0.992850000000     0.0415118  
H220     H      0.171230000000     0.721000000000     0.119240000000     0.0416018  
H221     H      0.248980000000     0.558300000000     0.241780000000     0.0434576  
H222     H      0.277350000000     0.493940000000     0.331650000000     0.0373911  
H223     H      0.329880000000     0.473400000000     0.255440000000     0.0376088  
H224     H      0.144030000000     0.523640000000     0.215050000000     0.0431103  
H225     H      0.329340000000     0.493400000000     0.346610000000     0.0414953  
H226     H      0.230840000000     0.522570000000     0.178210000000     0.0373309  
H227     H      0.178030000000     0.530560000000     0.256430000000     0.0373224  
H228     H      0.194220000000     0.553720000000     0.149520000000     0.0481686  
H229     H      0.363340000000     0.441480000000     0.286750000000     0.0488588  
H230     H      0.290670000000     0.541870000000     0.273180000000     0.0468087  
H231     H      0.310240000000     0.462730000000     0.363970000000     0.0480448  
H232     H      0.217480000000     0.467660000000     0.236380000000     0.0472898  
H233     H      0.279060000000     0.455610000000     0.319450000000     0.0425844  
H234     H      0.140840000000     0.561300000000     0.228350000000     0.0487661  
H235     H      0.362950000000     0.479970000000     0.297970000000     0.04162    
H236     H      0.224750000000     0.559020000000     0.194150000000     0.0409798  
H237     H      0.193800000000     0.563690000000     0.239900000000     0.0414021  
H238     H      0.258780000000     0.451310000000     0.268220000000     0.0440668  
H239     H      0.310510000000     0.443280000000     0.273800000000     0.0425549  
H240     H      0.179720000000     0.518590000000     0.162080000000     0.0425623  
H241     H      0.974720000000     0.212000000000     0.750200000000     0.0471508  
H242     H      0.084840000000     0.220600000000     0.724240000000     0.0374995  
H243     H      0.028140000000     0.226620000000     0.648560000000     0.0371668  
H244     H      0.946540000000     0.264550000000     0.825450000000     0.0429161  
H245     H      0.115990000000     0.223200000000     0.679980000000     0.0421679  
H246     H      0.933280000000     0.277440000000     0.732370000000     0.0372054  
H247     H      0.995350000000     0.266460000000     0.802950000000     0.0373595  
H248     H      0.901820000000     0.310270000000     0.765190000000     0.0481698  
H249     H      0.061730000000     0.192700000000     0.619630000000     0.0474395  
H250     H      0.013440000000     0.193440000000     0.716330000000     0.0437372  
H251     H      0.119110000000     0.186700000000     0.696270000000     0.0489586  
H252     H      0.005110000000     0.302040000000     0.735760000000     0.0434515  
H253     H      0.066780000000     0.187140000000     0.711080000000     0.0421799  
H254     H      0.964320000000     0.298710000000     0.836310000000     0.0486947  
H255     H      0.079110000000     0.227080000000     0.630670000000     0.041821   
H256     H      0.952700000000     0.309670000000     0.746570000000     0.0409347  
H257     H      0.988910000000     0.303260000000     0.787970000000     0.0412655  
H258     H      0.043920000000     0.283470000000     0.701900000000     0.0468377  
H259     H      0.033070000000     0.190720000000     0.666110000000     0.0415258  
H260     H      0.904410000000     0.272300000000     0.777710000000     0.0429278  
H261     H      0.726800000000     0.190580000000     0.978490000000     0.0434712  
H262     H      0.748800000000     0.279910000000     0.904900000000     0.0373496  
H263     H      0.819350000000     0.255620000000     0.962990000000     0.0373186  
H264     H      0.643240000000     0.229140000000     0.044010000000     0.043175   
H265     H      0.792500000000     0.273680000000     0.873920000000     0.0425084  
H266     H      0.735510000000     0.210760000000     0.052430000000     0.0373027  
H267     H      0.663470000000     0.228670000000     0.993930000000     0.0373087  
H268     H      0.702620000000     0.178070000000     0.083910000000     0.0482054  
H269     H      0.854630000000     0.287340000000     0.933860000000     0.0487958  
H270     H      0.761720000000     0.209000000000     0.940520000000     0.0469765  
H271     H      0.783430000000     0.312670000000     0.875460000000     0.0481202  
H272     H      0.721130000000     0.278840000000     0.016340000000     0.0472398  
H273     H      0.766450000000     0.308480000000     0.927090000000     0.0413072  
H274     H      0.630090000000     0.196410000000     0.025050000000     0.0487802  
H275     H      0.839350000000     0.256960000000     0.912670000000     0.0424063  
H276     H      0.718780000000     0.180440000000     0.031950000000     0.0410433  
H277     H      0.676620000000     0.190870000000     0.997880000000     0.0409572  
H278     H      0.756250000000     0.297200000000     0.978560000000     0.0435705  
H279     H      0.808090000000     0.294200000000     0.961150000000     0.0417567  
H280     H      0.692270000000     0.216750000000     0.083910000000     0.0430551  
H281     H      0.793510000000     0.529620000000     0.764460000000     0.0469656  
H282     H      0.684420000000     0.525480000000     0.734140000000     0.0372934  
H283     H      0.743970000000     0.521340000000     0.660670000000     0.0372682  
H284     H      0.820120000000     0.471200000000     0.837110000000     0.0422675  
H285     H      0.654340000000     0.524250000000     0.689290000000     0.0427314  
H286     H      0.833780000000     0.465010000000     0.743820000000     0.0373438  
H287     H      0.771220000000     0.472500000000     0.814450000000     0.037365   
H288     H      0.864310000000     0.429580000000     0.774350000000     0.0486962  
H289     H      0.711760000000     0.556930000000     0.631750000000     0.0481525  
H290     H      0.756460000000     0.550730000000     0.730110000000     0.043525   
H291     H      0.651640000000     0.560630000000     0.705840000000     0.0486564  
H292     H      0.761190000000     0.441200000000     0.745030000000     0.0436398  
H293     H      0.703260000000     0.559000000000     0.722340000000     0.0414308  
H294     H      0.801050000000     0.437070000000     0.845720000000     0.0485086  
H295     H      0.694370000000     0.521770000000     0.639740000000     0.0425835  
H296     H      0.813500000000     0.432240000000     0.755290000000     0.041703   
H297     H      0.776600000000     0.436660000000     0.796940000000     0.0416986  
H298     H      0.724140000000     0.462310000000     0.710710000000     0.0470316  
H299     H      0.738270000000     0.556540000000     0.679330000000     0.0411446  
H300     H      0.861650000000     0.466290000000     0.790220000000     0.0424698  
H301     H      0.993720000000     0.525700000000     0.008550000000     0.042761   
H302     H      0.937930000000     0.428570000000     0.995640000000     0.0371552  
H303     H      0.000920000000     0.445460000000     0.927250000000     0.0372005  
H304     H      0.096030000000     0.527700000000     0.056740000000     0.0442012  
H305     H      0.933910000000     0.386230000000     0.963190000000     0.0454599  
H306     H      0.007250000000     0.499560000000     0.079630000000     0.0372008  
H307     H      0.068260000000     0.522440000000     0.011150000000     0.0371242  
H308     H      0.027100000000     0.541370000000     0.111640000000     0.048091   
H309     H      0.964720000000     0.425770000000     0.888760000000     0.04717    
H310     H      0.965290000000     0.494790000000     0.973460000000     0.0425692  
H311     H      0.901880000000     0.409120000000     0.956890000000     0.0475755  
H312     H      0.045420000000     0.448940000000     0.034320000000     0.0476758  
H313     H      0.929360000000     0.454540000000     0.966070000000     0.0392524  
H314     H      0.087960000000     0.564430000000     0.043160000000     0.0478152  
H315     H      0.979500000000     0.398350000000     0.913850000000     0.0455541  
H316     H      0.005400000000     0.535810000000     0.062260000000     0.0401203  
H317     H      0.040500000000     0.548980000000     0.022850000000     0.0398132  
H318     H      0.016690000000     0.417860000000     0.999330000000     0.0477597  
H319     H      0.965490000000     0.464210000000     0.926850000000     0.039346   
H320     H      0.052540000000     0.511200000000     0.105560000000     0.0440816  
N1       N      0.901640000000     0.949380000000     0.429240000000    -0.153971   
N2       N      0.933400000000     0.986510000000     0.468760000000    -0.11331    
N3       N      0.019880000000     0.046030000000     0.540200000000    -0.112887   
N4       N      0.069860000000     0.069440000000     0.569650000000    -0.1531     
N5       N      0.674870000000     0.696760000000     0.582880000000    -0.1541     
N6       N      0.708930000000     0.735070000000     0.546370000000    -0.113449   
N7       N      0.776610000000     0.782910000000     0.449590000000    -0.113443   
N8       N      0.809900000000     0.821010000000     0.412140000000    -0.153577   
N9       N      0.206890000000     0.157130000000     0.564580000000    -0.153957   
N10      N      0.238710000000     0.197250000000     0.528140000000    -0.113525   
N11      N      0.269680000000     0.298430000000     0.457340000000    -0.113561   
N12      N      0.302590000000     0.338710000000     0.422090000000    -0.153997   
N13      N      0.450730000000     0.407710000000     0.420510000000    -0.154029   
N14      N      0.492020000000     0.442870000000     0.452240000000    -0.113526   
N15      N      0.543200000000     0.538720000000     0.518270000000    -0.113223   
N16      N      0.576050000000     0.574170000000     0.558440000000    -0.153898   
N17      N      0.804540000000     0.951480000000     0.319780000000    -0.153509   
N18      N      0.766720000000     0.985580000000     0.282850000000    -0.11334    
N19      N      0.684830000000     0.024060000000     0.193300000000    -0.113473   
N20      N      0.650190000000     0.060000000000     0.154960000000    -0.153744   
N21      N      0.569430000000     0.195920000000     0.168050000000    -0.154239   
N22      N      0.534710000000     0.228710000000     0.208880000000    -0.113491   
N23      N      0.442310000000     0.264770000000     0.288310000000    -0.113597   
N24      N      0.406190000000     0.300560000000     0.325160000000    -0.154376   
N25      N      0.185310000000     0.055980000000     0.672730000000    -0.153154   
N26      N      0.224090000000     0.028550000000     0.713250000000    -0.112583   
N27      N      0.294350000000     0.960380000000     0.794420000000    -0.113319   
N28      N      0.321500000000     0.917160000000     0.831050000000    -0.153634   
N29      N      0.411300000000     0.785630000000     0.837670000000    -0.153463   
N30      N      0.446580000000     0.745550000000     0.804690000000    -0.113315   
N31      N      0.527280000000     0.686980000000     0.725920000000    -0.112875   
N32      N      0.567950000000     0.667020000000     0.682710000000    -0.153186   
N33      N      0.414780000000     0.902130000000     0.943560000000    -0.153637   
N34      N      0.448700000000     0.942170000000     0.978150000000    -0.113335   
N35      N      0.506380000000     0.045650000000     0.024230000000    -0.113386   
N36      N      0.544580000000     0.084500000000     0.055530000000    -0.154043   
N37      N      0.043170000000     0.657940000000     0.198410000000    -0.153613   
N38      N      0.006610000000     0.697110000000     0.231280000000    -0.113373   
N39      N      0.949050000000     0.801270000000     0.276130000000    -0.113369   
N40      N      0.914420000000     0.841360000000     0.309980000000    -0.154087   
N41      N      0.302690000000     0.791110000000     0.932060000000    -0.154141   
N42      N      0.262450000000     0.758810000000     0.967940000000    -0.11337    
N43      N      0.180350000000     0.723480000000     0.058480000000    -0.113523   
N44      N      0.145750000000     0.688060000000     0.097240000000    -0.154352   
N45      N      0.340060000000     0.451530000000     0.327800000000    -0.154426   
N46      N      0.302470000000     0.486820000000     0.291880000000    -0.11353    
N47      N      0.205240000000     0.522690000000     0.218280000000    -0.11336    
N48      N      0.162710000000     0.555580000000     0.185810000000    -0.153846   
N49      N      0.094130000000     0.189680000000     0.655120000000    -0.154364   
N50      N      0.055420000000     0.227130000000     0.687470000000    -0.113513   
N51      N      0.964790000000     0.268030000000     0.766610000000    -0.113361   
N52      N      0.928520000000     0.302690000000     0.804460000000    -0.153785   
N53      N      0.822210000000     0.299030000000     0.900240000000    -0.153966   
N54      N      0.782560000000     0.264100000000     0.934290000000    -0.113407   
N55      N      0.700690000000     0.223660000000     0.022890000000    -0.113358   
N56      N      0.662900000000     0.189220000000     0.059470000000    -0.153707   
N57      N      0.677220000000     0.557600000000     0.665120000000    -0.153839   
N58      N      0.714820000000     0.519460000000     0.698120000000    -0.113378   
N59      N      0.801870000000     0.472550000000     0.778160000000    -0.113427   
N60      N      0.836670000000     0.433880000000     0.813570000000    -0.153705   
N61      N      0.934330000000     0.408670000000     0.921610000000    -0.153522   
N62      N      0.972600000000     0.434810000000     0.963850000000    -0.112995   
N63      N      0.038970000000     0.506730000000     0.045040000000    -0.113161   
N64      N      0.063850000000     0.550640000000     0.082340000000    -0.153549   
O1       O      0.872890000000     0.397830000000     0.817570000000    -0.251081   
O2       O      0.866700000000     0.323840000000     0.895870000000    -0.251965   
O3       O      0.923800000000     0.391460000000     0.874240000000    -0.252281   
O4       O      0.921610000000     0.329770000000     0.847610000000    -0.251789   
O5       O      0.888910000000     0.334170000000     0.812860000000    -0.251393   
O6       O      0.891390000000     0.383910000000     0.908730000000    -0.251593   
O7       O      0.841100000000     0.401410000000     0.853280000000    -0.252005   
O8       O      0.831620000000     0.336030000000     0.865680000000    -0.251733   
O9       O      0.097590000000     0.587980000000     0.092170000000    -0.251602   
O10      O      0.089820000000     0.640790000000     0.186180000000    -0.250319   
O11      O      0.107020000000     0.654990000000     0.102940000000    -0.253482   
O12      O      0.148650000000     0.582770000000     0.144450000000    -0.252438   
O13      O      0.121210000000     0.585510000000     0.183680000000    -0.250239   
O14      O      0.144390000000     0.650650000000     0.132490000000    -0.253667   
O15      O      0.067160000000     0.575770000000     0.127150000000    -0.251669   
O16      O      0.054670000000     0.633900000000     0.154350000000    -0.250297   
O17      O      0.355340000000     0.879520000000     0.839280000000    -0.252427   
O18      O      0.404750000000     0.818960000000     0.876210000000    -0.249007   
O19      O      0.312900000000     0.824190000000     0.893970000000    -0.25243    
O20      O      0.370590000000     0.879230000000     0.931340000000    -0.251352   
O21      O      0.406540000000     0.876350000000     0.899820000000    -0.250199   
O22      O      0.347370000000     0.815270000000     0.925950000000    -0.253937   
O23      O      0.324570000000     0.889790000000     0.874550000000    -0.252489   
O24      O      0.369530000000     0.814700000000     0.843990000000    -0.250939   
O25      O      0.557750000000     0.109810000000     0.098340000000    -0.252603   
O26      O      0.601680000000     0.157320000000     0.158020000000    -0.252214   
O27      O      0.618700000000     0.164850000000     0.067800000000    -0.251273   
O28      O      0.647670000000     0.095190000000     0.117470000000    -0.250016   
O29      O      0.611530000000     0.093060000000     0.148850000000    -0.251509   
O30      O      0.654500000000     0.156740000000     0.098550000000    -0.250652   
O31      O      0.591390000000     0.102960000000     0.064950000000    -0.253399   
O32      O      0.572920000000     0.172040000000     0.122650000000    -0.252322   
O33      O      0.378910000000     0.343830000000     0.328930000000    -0.248803   
O34      O      0.344660000000     0.367770000000     0.418780000000    -0.246449   
O35      O      0.369770000000     0.409800000000     0.330230000000    -0.249866   
O36      O      0.423970000000     0.399990000000     0.377290000000    -0.255176   
O37      O      0.404670000000     0.385430000000     0.418760000000    -0.248084   
O38      O      0.343990000000     0.421050000000     0.369030000000    -0.256879   
O39      O      0.403420000000     0.329450000000     0.367620000000    -0.256424   
O40      O      0.329530000000     0.345710000000     0.378890000000    -0.254986   
O41      O      0.614520000000     0.651060000000     0.668360000000    -0.250506   
O42      O      0.615360000000     0.604890000000     0.570520000000    -0.252567   
O43      O      0.638880000000     0.591460000000     0.663130000000    -0.251669   
O44      O      0.671530000000     0.654790000000     0.612440000000    -0.252461   
O45      O      0.631990000000     0.669730000000     0.590140000000    -0.253886   
O46      O      0.667820000000     0.588550000000     0.625030000000    -0.251886   
O47      O      0.578440000000     0.645250000000     0.637340000000    -0.24969    
O48      O      0.586560000000     0.590530000000     0.606010000000    -0.252147   
O49      O      0.846670000000     0.923140000000     0.326270000000    -0.250658   
O50      O      0.870270000000     0.910040000000     0.419060000000    -0.25325    
O51      O      0.868900000000     0.860360000000     0.323730000000    -0.253633   
O52      O      0.812760000000     0.861770000000     0.380880000000    -0.248845   
O53      O      0.852990000000     0.846820000000     0.402040000000    -0.25186    
O54      O      0.905930000000     0.868380000000     0.352970000000    -0.252657   
O55      O      0.812840000000     0.920490000000     0.360100000000    -0.249214   
O56      O      0.891910000000     0.931380000000     0.382040000000    -0.253532   
O57      O      0.147360000000     0.089030000000     0.663060000000    -0.24902    
O58      O      0.168030000000     0.124100000000     0.569730000000    -0.246813   
O59      O      0.129140000000     0.152250000000     0.655750000000    -0.249094   
O60      O      0.110740000000     0.100230000000     0.571010000000    -0.247117   
O61      O      0.096540000000     0.080260000000     0.612340000000    -0.254241   
O62      O      0.101360000000     0.156050000000     0.616900000000    -0.256764   
O63      O      0.176110000000     0.076960000000     0.626600000000    -0.255493   
O64      O      0.180450000000     0.150150000000     0.608080000000    -0.254917   


