data_structure

_audit_creation_method RASPA-1.0
_audit_creation_date 2023-5-25
_audit_author_name 'Poobodin Mano'

_cell_length_a    45.1301
_cell_length_b    43.0769
_cell_length_c    46.9526
_cell_angle_alpha 90
_cell_angle_beta  90
_cell_angle_gamma 90
_cell_volume      91278.9

_symmetry_cell_setting          triclinic
_symmetry_space_group_name_Hall 'P 1'
_symmetry_space_group_name_H-M  'P 1'
_symmetry_Int_Tables_number     1

_symmetry_equiv_pos_as_xyz 'x,y,z'

loop_
_atom_site_label
_atom_site_type_symbol
_atom_site_fract_x
_atom_site_fract_y
_atom_site_fract_z
_atom_site_charge
C1       C      0.902330000000     0.456190000000     0.886540000000     0.345843   
C2       C      0.827180000000     0.453000000000     0.815550000000     0.347088   
C3       C      0.901110000000     0.375030000000     0.815730000000     0.340587   
C4       C      0.830620000000     0.375320000000     0.885290000000     0.337352   
C5       C      0.086270000000     0.613720000000     0.076120000000     0.339193   
C6       C      0.148730000000     0.621450000000     0.155090000000     0.33995    
C7       C      0.155220000000     0.692420000000     0.073920000000     0.339099   
C8       C      0.082380000000     0.701740000000     0.142560000000     0.34455    
C9       C      0.342240000000     0.848040000000     0.885490000000     0.347404   
C10      C      0.361950000000     0.926670000000     0.815030000000     0.339895   
C11      C      0.426080000000     0.913850000000     0.893540000000     0.340315   
C12      C      0.421830000000     0.837580000000     0.822970000000     0.343748   
C13      C      0.590890000000     0.113680000000     0.065040000000     0.345172   
C14      C      0.594760000000     0.191550000000     0.136170000000     0.34145    
C15      C      0.663200000000     0.109720000000     0.140410000000     0.340875   
C16      C      0.670130000000     0.185880000000     0.069900000000     0.346312   
C17      C      0.389310000000     0.334840000000     0.311220000000     0.344726   
C18      C      0.325420000000     0.419240000000     0.311560000000     0.34516    
C19      C      0.315650000000     0.340540000000     0.380840000000     0.341456   
C20      C      0.397700000000     0.408580000000     0.385480000000     0.340534   
C21      C      0.648430000000     0.679470000000     0.538210000000     0.346557   
C22      C      0.575800000000     0.605960000000     0.546720000000     0.343982   
C23      C      0.655060000000     0.601620000000     0.611530000000     0.339248   
C24      C      0.589210000000     0.686250000000     0.618420000000     0.34036    
C25      C      0.911540000000     0.859800000000     0.339070000000     0.33906    
C26      C      0.843810000000     0.935840000000     0.320500000000     0.345553   
C27      C      0.845640000000     0.879760000000     0.411840000000     0.34129    
C28      C      0.911060000000     0.957710000000     0.393980000000     0.338357   
C29      C      0.093790000000     0.105490000000     0.588560000000     0.345746   
C30      C      0.089720000000     0.186010000000     0.655900000000     0.344244   
C31      C      0.159050000000     0.105250000000     0.667080000000     0.345146   
C32      C      0.171170000000     0.181360000000     0.595170000000     0.344722   
C33      C      0.068100000000     0.070900000000     0.520950000000    -0.0247553  
C34      C      0.935850000000     0.002680000000     0.455060000000    -0.0282426  
C35      C      0.955570000000     0.991210000000     0.396870000000    -0.0109393  
C36      C      0.913130000000     0.998220000000     0.431240000000    -0.011086   
C37      C      0.988770000000     0.056910000000     0.470540000000    -0.0507696  
C38      C      0.017030000000     0.012670000000     0.504630000000    -0.0496471  
C39      C      0.983510000000     0.025300000000     0.465700000000     0.0639927  
C40      C      0.976930000000     0.996250000000     0.421810000000    -0.0290453  
C41      C      0.022460000000     0.044270000000     0.509330000000     0.064533   
C42      C      0.027720000000     0.069560000000     0.555130000000    -0.0214586  
C43      C      0.007970000000     0.066420000000     0.492220000000    -0.0541941  
C44      C      0.048960000000     0.073810000000     0.580460000000    -0.0182158  
C45      C      0.091280000000     0.074620000000     0.544430000000    -0.0106483  
C46      C      0.997630000000     0.003160000000     0.483130000000    -0.05331    
C47      C      0.714320000000     0.710580000000     0.503830000000    -0.0246072  
C48      C      0.778700000000     0.854150000000     0.446860000000    -0.0290347  
C49      C      0.841410000000     0.837970000000     0.447800000000    -0.0100625  
C50      C      0.802320000000     0.879460000000     0.444190000000    -0.0100227  
C51      C      0.760810000000     0.798880000000     0.498260000000    -0.0509214  
C52      C      0.731040000000     0.767120000000     0.454890000000    -0.0503182  
C53      C      0.767750000000     0.805170000000     0.469780000000     0.0642715  
C54      C      0.816670000000     0.813830000000     0.450270000000    -0.0289591  
C55      C      0.724010000000     0.760930000000     0.483370000000     0.0648289  
C56      C      0.676460000000     0.750930000000     0.505530000000    -0.0211308  
C57      C      0.739210000000     0.776890000000     0.505110000000    -0.054238   
C58      C      0.651560000000     0.726790000000     0.508510000000    -0.0190035  
C59      C      0.691070000000     0.684890000000     0.505650000000    -0.0106294  
C60      C      0.752780000000     0.788960000000     0.448050000000    -0.0533896  
C61      C      0.194350000000     0.244520000000     0.548570000000    -0.0235809  
C62      C      0.291640000000     0.277250000000     0.427160000000    -0.0280847  
C63      C      0.269390000000     0.337620000000     0.408940000000    -0.0104924  
C64      C      0.298400000000     0.289100000000     0.397160000000    -0.0111656  
C65      C      0.227970000000     0.257220000000     0.463000000000    -0.050458   
C66      C      0.259220000000     0.265560000000     0.513880000000    -0.04998    
C67      C      0.253500000000     0.275680000000     0.463190000000     0.0646425  
C68      C      0.263510000000     0.323960000000     0.438480000000    -0.0284685  
C69      C      0.233590000000     0.247230000000     0.513710000000     0.0649641  
C70      C      0.225070000000     0.199130000000     0.539040000000    -0.0210367  
C71      C      0.218050000000     0.243020000000     0.487980000000    -0.0537225  
C72      C      0.218260000000     0.185220000000     0.568480000000    -0.0192227  
C73      C      0.187060000000     0.233110000000     0.578550000000    -0.012656   
C74      C      0.269210000000     0.279660000000     0.488860000000    -0.0535306  
C75      C      0.516100000000     0.549890000000     0.529410000000    -0.0248466  
C76      C      0.458320000000     0.460690000000     0.408080000000    -0.0286689  
C77      C      0.411440000000     0.423910000000     0.434340000000    -0.0107276  
C78      C      0.447160000000     0.431390000000     0.393140000000    -0.0105214  
C79      C      0.494980000000     0.474620000000     0.470960000000    -0.0508859  
C80      C      0.475630000000     0.536160000000     0.467350000000    -0.049773   
C81      C      0.470120000000     0.481800000000     0.454350000000     0.0641414  
C82      C      0.424230000000     0.453460000000     0.447580000000    -0.0284942  
C83      C      0.500500000000     0.528990000000     0.483930000000     0.0647231  
C84      C      0.545930000000     0.558600000000     0.487150000000    -0.0210371  
C85      C      0.510150000000     0.497960000000     0.485610000000    -0.0541257  
C86      C      0.559230000000     0.588630000000     0.499310000000    -0.0185895  
C87      C      0.527520000000     0.579520000000     0.543610000000    -0.0102879  
C88      C      0.460540000000     0.512860000000     0.452590000000    -0.0535567  
C89      C      0.816010000000     0.995070000000     0.270520000000    -0.0253212  
C90      C      0.688630000000     0.041040000000     0.182220000000    -0.0286223  
C91      C      0.706110000000     0.105390000000     0.172280000000    -0.0115731  
C92      C      0.665240000000     0.064410000000     0.172290000000    -0.0103043  
C93      C      0.733330000000     0.037290000000     0.243170000000    -0.0507554  
C94      C      0.768810000000     0.995450000000     0.213010000000    -0.0499409  
C95      C      0.731160000000     0.035860000000     0.213460000000     0.0645984  
C96      C      0.727420000000     0.079910000000     0.181840000000    -0.0275317  
C97      C      0.771050000000     0.996970000000     0.242730000000     0.0644118  
C98      C      0.777880000000     0.955920000000     0.277390000000    -0.0213587  
C99      C      0.753110000000     0.018100000000     0.257770000000    -0.0536655  
C100     C      0.800400000000     0.932210000000     0.288720000000    -0.0189282  
C101     C      0.840380000000     0.973150000000     0.280830000000    -0.0102855  
C102     C      0.749120000000     0.014760000000     0.198390000000    -0.0531653  
C103     C      0.452240000000     0.288400000000     0.286440000000    -0.0248481  
C104     C      0.530590000000     0.238460000000     0.157150000000    -0.0284318  
C105     C      0.585600000000     0.216450000000     0.182690000000    -0.0104983  
C106     C      0.558140000000     0.234110000000     0.138590000000    -0.0106744  
C107     C      0.513800000000     0.285030000000     0.215460000000    -0.0506609  
C108     C      0.467720000000     0.243580000000     0.227330000000    -0.0500396  
C109     C      0.514500000000     0.255100000000     0.203880000000     0.0646057  
C110     C      0.557030000000     0.221310000000     0.199560000000    -0.0285054  
C111     C      0.467060000000     0.273490000000     0.238980000000     0.064798   
C112     C      0.425230000000     0.307960000000     0.245280000000    -0.0208554  
C113     C      0.490330000000     0.294250000000     0.232900000000    -0.0538071  
C114     C      0.397110000000     0.313430000000     0.263020000000    -0.0197728  
C115     C      0.425250000000     0.292090000000     0.305770000000    -0.0104264  
C116     C      0.491220000000     0.234340000000     0.209930000000    -0.0535098  
C117     C      0.216600000000     0.084780000000     0.718910000000    -0.0250555  
C118     C      0.310020000000     0.953110000000     0.760880000000    -0.0285045  
C119     C      0.350090000000     0.981050000000     0.802300000000    -0.0104204  
C120     C      0.339420000000     0.937280000000     0.768040000000    -0.0107382  
C121     C      0.290160000000     0.021150000000     0.728840000000    -0.0497771  
C122     C      0.235010000000     0.016850000000     0.755720000000    -0.049335   
C123     C      0.287300000000     0.003200000000     0.753560000000     0.0647666  
C124     C      0.320430000000     0.995580000000     0.793740000000    -0.0289706  
C125     C      0.237920000000     0.034990000000     0.731130000000     0.0653167  
C126     C      0.202390000000     0.038370000000     0.692670000000    -0.0215265  
C127     C      0.265720000000     0.036820000000     0.717570000000    -0.053393   
C128     C      0.172590000000     0.052740000000     0.683800000000    -0.0183711  
C129     C      0.187330000000     0.100880000000     0.711910000000    -0.010056   
C130     C      0.259390000000     0.000910000000     0.766830000000    -0.0528418  
C131     C      0.488150000000     0.804350000000     0.789800000000    -0.0246474  
C132     C      0.528720000000     0.723690000000     0.657850000000    -0.0282218  
C133     C      0.593300000000     0.722250000000     0.659210000000    -0.0106857  
C134     C      0.546060000000     0.718960000000     0.630230000000    -0.0111185  
C135     C      0.521380000000     0.783480000000     0.704990000000    -0.0506134  
C136     C      0.500950000000     0.740560000000     0.745130000000    -0.0498112  
C137     C      0.528920000000     0.752100000000     0.702110000000     0.0644689  
C138     C      0.574070000000     0.727140000000     0.685700000000    -0.0285986  
C139     C      0.493340000000     0.771920000000     0.747960000000     0.064871   
C140     C      0.445020000000     0.791450000000     0.760940000000    -0.0209264  
C141     C      0.503670000000     0.793390000000     0.727630000000    -0.0539205  
C142     C      0.423840000000     0.796770000000     0.786080000000    -0.0190169  
C143     C      0.469030000000     0.809490000000     0.816260000000    -0.0106994  
C144     C      0.518500000000     0.730600000000     0.722370000000    -0.0534333  
C145     C      0.533240000000     0.057650000000     0.042530000000    -0.0248065  
C146     C      0.484050000000     0.968180000000     0.917960000000    -0.0285223  
C147     C      0.439050000000     0.927930000000     0.942950000000    -0.0106416  
C148     C      0.474440000000     0.938810000000     0.902160000000    -0.010579   
C149     C      0.518730000000     0.981920000000     0.982510000000    -0.0509671  
C150     C      0.497730000000     0.042850000000     0.978620000000    -0.0500423  
C151     C      0.494460000000     0.988480000000     0.964900000000     0.064019   
C152     C      0.450190000000     0.957780000000     0.957050000000    -0.0285073  
C153     C      0.522090000000     0.036320000000     0.996110000000     0.0642948  
C154     C      0.566880000000     0.066440000000     0.003020000000    -0.0213187  
C155     C      0.532480000000     0.005560000000     0.998040000000    -0.0536433  
C156     C      0.578820000000     0.096590000000     0.016230000000    -0.0187548  
C157     C      0.543010000000     0.087460000000     0.057520000000    -0.0104294  
C158     C      0.483950000000     0.019210000000     0.963130000000    -0.0534806  
C159     C      0.060510000000     0.749010000000     0.203850000000    -0.024665   
C160     C      0.930970000000     0.808580000000     0.280420000000    -0.0282353  
C161     C      0.958450000000     0.830790000000     0.332810000000    -0.010428   
C162     C      0.912050000000     0.814360000000     0.306910000000    -0.0110686  
C163     C      0.988050000000     0.758670000000     0.263660000000    -0.0506363  
C164     C      0.003170000000     0.799360000000     0.219570000000    -0.0497488  
C165     C      0.978650000000     0.789620000000     0.264860000000     0.0645406  
C166     C      0.975910000000     0.824250000000     0.305490000000    -0.0287623  
C167     C      0.012710000000     0.768450000000     0.218450000000     0.0647006  
C168     C      0.016220000000     0.734450000000     0.177440000000    -0.0213533  
C169     C      0.004920000000     0.748060000000     0.240680000000    -0.054013   
C170     C      0.034240000000     0.727860000000     0.150270000000    -0.0191053  
C171     C      0.080250000000     0.744100000000     0.177850000000    -0.0108452  
C172     C      0.986230000000     0.809950000000     0.242510000000    -0.0531571  
C173     C      0.275750000000     0.832570000000     0.929260000000    -0.0248308  
C174     C      0.217700000000     0.712730000000     0.025670000000    -0.028335   
C175     C      0.163910000000     0.741290000000     0.048110000000    -0.0116696  
C176     C      0.204840000000     0.700930000000     0.053780000000    -0.0105511  
C177     C      0.249100000000     0.781770000000     0.005250000000    -0.0501497  
C178     C      0.239090000000     0.764250000000     0.948720000000    -0.0495455  
C179     C      0.227270000000     0.759660000000     0.999100000000     0.0643941  
C180     C      0.178920000000     0.751190000000     0.020340000000    -0.0277179  
C181     C      0.261010000000     0.786280000000     0.954890000000     0.0650306  
C182     C      0.309730000000     0.789090000000     0.933690000000    -0.0209396  
C183     C      0.265930000000     0.794970000000     0.983410000000    -0.053975   
C184     C      0.326450000000     0.798260000000     0.906480000000    -0.0186018  
C185     C      0.290430000000     0.843590000000     0.901690000000    -0.0101908  
C186     C      0.222360000000     0.750930000000     0.970580000000    -0.0531763  
C187     C      0.299150000000     0.493070000000     0.279760000000    -0.0249544  
C188     C      0.175170000000     0.552740000000     0.194050000000    -0.0287658  
C189     C      0.187850000000     0.619060000000     0.191770000000    -0.0105707  
C190     C      0.150410000000     0.575610000000     0.186610000000    -0.0106073  
C191     C      0.218010000000     0.539640000000     0.253430000000    -0.0509461  
C192     C      0.258500000000     0.509140000000     0.218100000000    -0.0495156  
C193     C      0.218070000000     0.545890000000     0.224160000000     0.0641559  
C194     C      0.211110000000     0.594500000000     0.199050000000    -0.0286522  
C195     C      0.258430000000     0.502860000000     0.247360000000     0.0645033  
C196     C      0.263570000000     0.452390000000     0.269270000000    -0.0214532  
C197     C      0.237930000000     0.518260000000     0.265020000000    -0.0540743  
C198     C      0.286070000000     0.426640000000     0.275830000000    -0.0181651  
C199     C      0.323520000000     0.469550000000     0.286650000000    -0.0103255  
C200     C      0.238490000000     0.530390000000     0.206490000000    -0.0536867  
C201     C      0.050420000000     0.224870000000     0.715630000000    -0.0247428  
C202     C      0.935290000000     0.338890000000     0.751680000000    -0.0286474  
C203     C      0.935800000000     0.331080000000     0.813420000000    -0.0103096  
C204     C      0.908700000000     0.350050000000     0.769130000000    -0.0104364  
C205     C      0.966680000000     0.266260000000     0.740100000000    -0.0504268  
C206     C      0.018290000000     0.297030000000     0.723080000000    -0.0500052  
C207     C      0.971120000000     0.297230000000     0.748150000000     0.0640874  
C208     C      0.961070000000     0.320890000000     0.793870000000    -0.0285743  
C209     C      0.014000000000     0.265960000000     0.715290000000     0.064794   
C210     C      0.026950000000     0.239720000000     0.671260000000    -0.0216466  
C211     C      0.987890000000     0.250670000000     0.723790000000    -0.0539214  
C212     C      0.053620000000     0.228930000000     0.653450000000    -0.01759    
C213     C      0.078330000000     0.213520000000     0.700440000000    -0.0104839  
C214     C      0.997070000000     0.312630000000     0.739350000000    -0.0533524  
C215     C      0.699460000000     0.254080000000     0.031560000000    -0.0251968  
C216     C      0.806800000000     0.304290000000     0.923730000000    -0.0282658  
C217     C      0.786690000000     0.368070000000     0.915640000000    -0.0111507  
C218     C      0.815770000000     0.321790000000     0.896750000000    -0.0108158  
C219     C      0.738980000000     0.280650000000     0.951060000000    -0.0501097  
C220     C      0.767250000000     0.274460000000     0.003750000000    -0.049752   
C221     C      0.765740000000     0.296220000000     0.955970000000     0.0645091  
C222     C      0.779090000000     0.348370000000     0.941730000000    -0.0279845  
C223     C      0.740420000000     0.259010000000     0.998880000000     0.0647767  
C224     C      0.724480000000     0.207900000000     0.014170000000    -0.0214739  
C225     C      0.726330000000     0.262200000000     0.972280000000    -0.0537507  
C226     C      0.715390000000     0.188940000000     0.040500000000    -0.0180768  
C227     C      0.689770000000     0.237820000000     0.058910000000    -0.00965376 
C228     C      0.779890000000     0.292940000000     0.982540000000    -0.0535428  
C229     C      0.764500000000     0.469930000000     0.767590000000    -0.0246567  
C230     C      0.717770000000     0.579670000000     0.657040000000    -0.0285794  
C231     C      0.663110000000     0.551610000000     0.636180000000    -0.010855   
C232     C      0.705580000000     0.588940000000     0.627890000000    -0.0105973  
C233     C      0.745240000000     0.512070000000     0.685550000000    -0.0509378  
C234     C      0.734570000000     0.537420000000     0.739420000000    -0.0501615  
C235     C      0.724420000000     0.535970000000     0.688540000000     0.0640431  
C236     C      0.677110000000     0.543570000000     0.664970000000    -0.0286536  
C237     C      0.755420000000     0.513560000000     0.736420000000     0.0647109  
C238     C      0.802990000000     0.508470000000     0.759910000000    -0.0213044  
C239     C      0.760670000000     0.500900000000     0.709230000000    -0.0542167  
C240     C      0.817660000000     0.501320000000     0.788730000000    -0.0184125  
C241     C      0.776790000000     0.461380000000     0.796870000000    -0.0104916  
C242     C      0.719190000000     0.548650000000     0.715730000000    -0.053532   
C243     C      0.969130000000     0.495250000000     0.915250000000    -0.0246639  
C244     C      0.022490000000     0.571620000000     0.045710000000    -0.0289074  
C245     C      0.085230000000     0.580530000000     0.033250000000    -0.0104243  
C246     C      0.044240000000     0.577650000000     0.070090000000    -0.0103003  
C247     C      0.014320000000     0.512810000000     0.996000000000    -0.0510772  
C248     C      0.979810000000     0.554310000000     0.964430000000    -0.0490898  
C249     C      0.017200000000     0.544780000000     0.000750000000     0.0646857  
C250     C      0.061780000000     0.574380000000     0.010370000000    -0.0286604  
C251     C      0.976750000000     0.522330000000     0.959850000000     0.0645095  
C252     C      0.931720000000     0.492860000000     0.952300000000    -0.0216646  
C253     C      0.994320000000     0.501580000000     0.975730000000    -0.0535035  
C254     C      0.906790000000     0.486890000000     0.930700000000    -0.0183891  
C255     C      0.946220000000     0.489810000000     0.891740000000    -0.0108962  
C256     C      0.999850000000     0.565540000000     0.984660000000    -0.0533119  
Cd1      Cd     0.866330000000     0.416220000000     0.850820000000     0.511584   
Cd2      Cd     0.118010000000     0.657070000000     0.111890000000     0.508917   
Cd3      Cd     0.387060000000     0.882160000000     0.854540000000     0.51092    
Cd4      Cd     0.629250000000     0.148810000000     0.102480000000     0.51276    
Cd5      Cd     0.357130000000     0.376620000000     0.347900000000     0.511938   
Cd6      Cd     0.616840000000     0.642800000000     0.579650000000     0.511234   
Cd7      Cd     0.878140000000     0.908770000000     0.366150000000     0.509401   
Cd8      Cd     0.128670000000     0.144040000000     0.626150000000     0.515802   
H1       H      0.993640000000     0.978610000000     0.480140000000     0.0470172  
H2       H      0.078540000000     0.058470000000     0.502740000000     0.042098   
H3       H      0.007820000000     0.056380000000     0.562220000000     0.0467461  
H4       H      0.952750000000     0.013640000000     0.385470000000     0.0457225  
H5       H      0.101530000000     0.051630000000     0.548700000000     0.0631007  
H6       H      0.926060000000     0.018340000000     0.471420000000     0.0405976  
H7       H      0.997490000000     0.007250000000     0.413500000000     0.0410233  
H8       H      0.893280000000     0.986430000000     0.440170000000     0.0507515  
H9       H      0.038070000000     0.089960000000     0.595710000000     0.0629058  
H10      H      0.027850000000     0.995370000000     0.517730000000     0.052105   
H11      H      0.109100000000     0.090190000000     0.536470000000     0.0524867  
H12      H      0.977840000000     0.074200000000     0.457510000000     0.050078   
H13      H      0.061140000000     0.094310000000     0.513460000000     0.0419755  
H14      H      0.965600000000     0.974370000000     0.381740000000     0.0517246  
H15      H      0.940500000000     0.979840000000     0.465260000000     0.0443313  
H16      H      0.982880000000     0.973260000000     0.431000000000     0.0441704  
H17      H      0.011530000000     0.090990000000     0.495580000000     0.0461707  
H18      H      0.019990000000     0.092840000000     0.547940000000     0.0421734  
H19      H      0.906120000000     0.021470000000     0.423460000000     0.0453378  
H20      H      0.046620000000     0.999500000000     0.570200000000     0.155546   
H21      H      0.757910000000     0.793180000000     0.425870000000     0.0483431  
H22      H      0.733590000000     0.701610000000     0.491510000000     0.0420008  
H23      H      0.667710000000     0.771910000000     0.494520000000     0.0454083  
H24      H      0.848830000000     0.844320000000     0.469620000000     0.0447462  
H25      H      0.686170000000     0.676470000000     0.483770000000     0.0635286  
H26      H      0.758950000000     0.864250000000     0.457620000000     0.0414421  
H27      H      0.824860000000     0.794200000000     0.463530000000     0.0406138  
H28      H      0.793720000000     0.898330000000     0.430330000000     0.0520245  
H29      H      0.635120000000     0.736390000000     0.523800000000     0.0638973  
H30      H      0.719670000000     0.754860000000     0.437970000000     0.0540868  
H31      H      0.700600000000     0.665110000000     0.517780000000     0.0531469  
H32      H      0.772280000000     0.811030000000     0.515180000000     0.0501647  
H33      H      0.722060000000     0.716480000000     0.525700000000     0.0426795  
H34      H      0.860540000000     0.827400000000     0.436470000000     0.0506984  
H35      H      0.772030000000     0.846550000000     0.425120000000     0.0462528  
H36      H      0.811340000000     0.804740000000     0.428660000000     0.0456294  
H37      H      0.734420000000     0.772320000000     0.527290000000     0.0461665  
H38      H      0.683500000000     0.758160000000     0.527270000000     0.0417724  
H39      H      0.806380000000     0.889440000000     0.465680000000     0.0447951  
H40      H      0.660580000000     0.738380000000     0.441550000000     0.155746   
H41      H      0.289120000000     0.293630000000     0.489530000000     0.0468897  
H42      H      0.193980000000     0.270360000000     0.548660000000     0.0447622  
H43      H      0.247400000000     0.191310000000     0.531950000000     0.0456967  
H44      H      0.249900000000     0.332750000000     0.395150000000     0.047755   
H45      H      0.202180000000     0.244710000000     0.593900000000     0.0661453  
H46      H      0.290740000000     0.251430000000     0.426500000000     0.0421954  
H47      H      0.241730000000     0.332730000000     0.446170000000     0.0412427  
H48      H      0.320790000000     0.280850000000     0.390830000000     0.0551082  
H49      H      0.215590000000     0.159750000000     0.565550000000     0.0632676  
H50      H      0.271420000000     0.268930000000     0.533490000000     0.0526408  
H51      H      0.164100000000     0.240420000000     0.583910000000     0.0638392  
H52      H      0.215760000000     0.253840000000     0.443380000000     0.0513815  
H53      H      0.176930000000     0.236190000000     0.533620000000     0.0446799  
H54      H      0.271580000000     0.363240000000     0.410880000000     0.0515677  
H55      H      0.309920000000     0.284230000000     0.441760000000     0.0444643  
H56      H      0.281000000000     0.332190000000     0.453410000000     0.0439407  
H57      H      0.198260000000     0.228860000000     0.487230000000     0.0468897  
H58      H      0.208630000000     0.189930000000     0.523490000000     0.0426115  
H59      H      0.282060000000     0.278810000000     0.382160000000     0.0506514  
H60      H      0.275800000000     0.228360000000     0.576890000000     0.154831   
H61      H      0.441540000000     0.519070000000     0.439740000000     0.0469012  
H62      H      0.493260000000     0.545290000000     0.537320000000     0.0420283  
H63      H      0.545530000000     0.559990000000     0.463470000000     0.0469577  
H64      H      0.421990000000     0.403490000000     0.444680000000     0.0457868  
H65      H      0.510550000000     0.598040000000     0.541170000000     0.0623156  
H66      H      0.481980000000     0.464200000000     0.402200000000     0.0410626  
H67      H      0.422500000000     0.451550000000     0.471160000000     0.0404233  
H68      H      0.447390000000     0.435460000000     0.369750000000     0.0513131  
H69      H      0.583120000000     0.588900000000     0.493480000000     0.064246   
H70      H      0.468030000000     0.559940000000     0.465770000000     0.0525873  
H71      H      0.530110000000     0.575030000000     0.566810000000     0.0518547  
H72      H      0.502690000000     0.450870000000     0.472380000000     0.0500134  
H73      H      0.530440000000     0.530040000000     0.535780000000     0.0413327  
H74      H      0.387310000000     0.422930000000     0.439050000000     0.0502799  
H75      H      0.445450000000     0.481080000000     0.400340000000     0.0441165  
H76      H      0.410720000000     0.473720000000     0.440610000000     0.0432137  
H77      H      0.529430000000     0.491840000000     0.498110000000     0.0457087  
H78      H      0.560560000000     0.538760000000     0.493010000000     0.0415961  
H79      H      0.462780000000     0.412070000000     0.397730000000     0.0460533  
H80      H      0.499160000000     0.610610000000     0.466900000000     0.155829   
H81      H      0.748100000000     0.013440000000     0.175390000000     0.047968   
H82      H      0.825900000000     0.011550000000     0.254920000000     0.0423193  
H83      H      0.759140000000     0.943460000000     0.267030000000     0.0463839  
H84      H      0.699930000000     0.119650000000     0.191100000000     0.0494881  
H85      H      0.851810000000     0.963100000000     0.261990000000     0.06151    
H86      H      0.677460000000     0.022970000000     0.195320000000     0.0412164  
H87      H      0.745440000000     0.090850000000     0.194580000000     0.0426141  
H88      H      0.650120000000     0.052690000000     0.156980000000     0.050567   
H89      H      0.789650000000     0.919770000000     0.306720000000     0.0624028  
H90      H      0.782590000000     0.979420000000     0.201160000000     0.052964   
H91      H      0.857030000000     0.986940000000     0.292880000000     0.0510196  
H92      H      0.719820000000     0.053600000000     0.255000000000     0.0504952  
H93      H      0.807490000000     0.008740000000     0.288920000000     0.0420539  
H94      H      0.717930000000     0.120830000000     0.157050000000     0.06026    
H95      H      0.698560000000     0.029490000000     0.163270000000     0.0438013  
H96      H      0.737630000000     0.068800000000     0.162790000000     0.0464799  
H97      H      0.754550000000     0.019920000000     0.280720000000     0.0458832  
H98      H      0.768620000000     0.969040000000     0.295790000000     0.0414739  
H99      H      0.651740000000     0.071570000000     0.190980000000     0.0473349  
H100     H      0.800330000000     0.923220000000     0.220630000000     0.155579   
H101     H      0.491310000000     0.211030000000     0.201340000000     0.0472297  
H102     H      0.465840000000     0.268760000000     0.294600000000     0.0414844  
H103     H      0.418940000000     0.302990000000     0.222810000000     0.0479739  
H104     H      0.599840000000     0.237310000000     0.185350000000     0.0467329  
H105     H      0.414010000000     0.269240000000     0.307770000000     0.0619839  
H106     H      0.517020000000     0.257560000000     0.147920000000     0.0427995  
H107     H      0.563020000000     0.227650000000     0.221820000000     0.0402723  
H108     H      0.551090000000     0.226130000000     0.117110000000     0.0549372  
H109     H      0.387210000000     0.335640000000     0.255570000000     0.0710571  
H110     H      0.450000000000     0.227370000000     0.231890000000     0.0526164  
H111     H      0.433010000000     0.298870000000     0.327360000000     0.0519746  
H112     H      0.531610000000     0.301180000000     0.211050000000     0.050939   
H113     H      0.465870000000     0.309930000000     0.287470000000     0.0424265  
H114     H      0.597680000000     0.196280000000     0.191830000000     0.0509335  
H115     H      0.517190000000     0.216760000000     0.156640000000     0.0451373  
H116     H      0.544340000000     0.199140000000     0.200110000000     0.0439373  
H117     H      0.490400000000     0.317470000000     0.241690000000     0.0467136  
H118     H      0.438540000000     0.329730000000     0.245260000000     0.0437493  
H119     H      0.569240000000     0.256990000000     0.136040000000     0.0480429  
H120     H      0.392690000000     0.243050000000     0.240530000000     0.155668   
H121     H      0.256440000000     0.986820000000     0.785700000000     0.0478649  
H122     H      0.224600000000     0.093600000000     0.739820000000     0.0442829  
H123     H      0.200030000000     0.012680000000     0.693980000000     0.0479551  
H124     H      0.367970000000     0.992210000000     0.789620000000     0.04538    
H125     H      0.172110000000     0.098260000000     0.730360000000     0.0630515  
H126     H      0.304150000000     0.947320000000     0.738460000000     0.042745   
H127     H      0.322360000000     0.021260000000     0.795590000000     0.0416183  
H128     H      0.336340000000     0.911710000000     0.766820000000     0.0546676  
H129     H      0.168430000000     0.045700000000     0.661360000000     0.067577   
H130     H      0.213730000000     0.015000000000     0.766240000000     0.0528777  
H131     H      0.191620000000     0.126120000000     0.709160000000     0.0577083  
H132     H      0.311400000000     0.022840000000     0.718230000000     0.0519726  
H133     H      0.233260000000     0.091040000000     0.702380000000     0.047281   
H134     H      0.354360000000     0.986130000000     0.825140000000     0.0508461  
H135     H      0.292320000000     0.943810000000     0.775050000000     0.0467808  
H136     H      0.303030000000     0.987560000000     0.808850000000     0.0447756  
H137     H      0.268510000000     0.050340000000     0.698330000000     0.0493012  
H138     H      0.219090000000     0.043420000000     0.675820000000     0.0454596  
H139     H      0.356060000000     0.943990000000     0.751690000000     0.0461828  
H140     H      0.160160000000     0.019680000000     0.744330000000     0.156103   
H141     H      0.523670000000     0.706160000000     0.720430000000     0.0472211  
H142     H      0.510390000000     0.796140000000     0.796770000000     0.0423654  
H143     H      0.435300000000     0.773810000000     0.746320000000     0.0461123  
H144     H      0.601130000000     0.745270000000     0.651600000000     0.0464184  
H145     H      0.469640000000     0.788120000000     0.829510000000     0.0629295  
H146     H      0.507520000000     0.735600000000     0.652610000000     0.0424837  
H147     H      0.586620000000     0.741740000000     0.701100000000     0.040737   
H148     H      0.533330000000     0.702980000000     0.616230000000     0.0554086  
H149     H      0.403730000000     0.808330000000     0.777410000000     0.0657825  
H150     H      0.492980000000     0.723750000000     0.760470000000     0.0531161  
H151     H      0.478950000000     0.828570000000     0.829050000000     0.052401   
H152     H      0.529000000000     0.800220000000     0.689410000000     0.0508358  
H153     H      0.490980000000     0.826910000000     0.778550000000     0.0420761  
H154     H      0.613130000000     0.708430000000     0.665280000000     0.0501931  
H155     H      0.523360000000     0.700640000000     0.667310000000     0.0449274  
H156     H      0.569720000000     0.704220000000     0.695830000000     0.0433143  
H157     H      0.497820000000     0.817700000000     0.729100000000     0.0462634  
H158     H      0.447100000000     0.813520000000     0.748740000000     0.0424407  
H159     H      0.547870000000     0.741670000000     0.619110000000     0.0495322  
H160     H      0.442470000000     0.724450000000     0.788760000000     0.155659   
H161     H      0.465230000000     0.024900000000     0.949700000000     0.0466783  
H162     H      0.509790000000     0.052880000000     0.048460000000     0.0416935  
H163     H      0.568680000000     0.067760000000     0.979400000000     0.0467756  
H164     H      0.450700000000     0.907840000000     0.952740000000     0.0471235  
H165     H      0.526250000000     0.105840000000     0.053420000000     0.0614954  
H166     H      0.507530000000     0.973180000000     0.912320000000     0.0410508  
H167     H      0.448460000000     0.955010000000     0.980560000000     0.0405224  
H168     H      0.474620000000     0.943630000000     0.878900000000     0.051282   
H169     H      0.603170000000     0.097000000000     0.012540000000     0.0623886  
H170     H      0.489470000000     0.066380000000     0.976980000000     0.0518944  
H171     H      0.543280000000     0.083140000000     0.080870000000     0.0516345  
H172     H      0.527040000000     0.958400000000     0.984090000000     0.0507987  
H173     H      0.547080000000     0.037930000000     0.050200000000     0.042      
H174     H      0.415000000000     0.925360000000     0.947550000000     0.0505861  
H175     H      0.470200000000     0.988050000000     0.910660000000     0.0435788  
H176     H      0.435700000000     0.977470000000     0.950560000000     0.0433297  
H177     H      0.551210000000     0.999880000000     0.011450000000     0.0461765  
H178     H      0.581050000000     0.046760000000     0.010170000000     0.0420418  
H179     H      0.490990000000     0.920240000000     0.906340000000     0.0471996  
H180     H      0.521240000000     0.117930000000     0.980280000000     0.155209   
H181     H      0.979120000000     0.833930000000     0.242840000000     0.0486211  
H182     H      0.070690000000     0.767360000000     0.217390000000     0.0415023  
H183     H      0.993420000000     0.741890000000     0.171460000000     0.0467077  
H184     H      0.960070000000     0.810120000000     0.346900000000     0.0453947  
H185     H      0.084290000000     0.766940000000     0.167550000000     0.0617321  
H186     H      0.920530000000     0.789610000000     0.267820000000     0.0441706  
H187     H      0.998690000000     0.816810000000     0.311470000000     0.0405585  
H188     H      0.889800000000     0.822590000000     0.300100000000     0.0602228  
H189     H      0.024640000000     0.706740000000     0.140240000000     0.0627586  
H190     H      0.009000000000     0.815290000000     0.202640000000     0.053221   
H191     H      0.102050000000     0.735110000000     0.185190000000     0.0518675  
H192     H      0.982290000000     0.742750000000     0.280640000000     0.0502484  
H193     H      0.059630000000     0.727110000000     0.216430000000     0.0417293  
H194     H      0.968840000000     0.850700000000     0.344090000000     0.0514329  
H195     H      0.931230000000     0.829980000000     0.267110000000     0.0490515  
H196     H      0.977620000000     0.846090000000     0.292900000000     0.045151   
H197     H      0.012010000000     0.724070000000     0.240340000000     0.0459362  
H198     H      0.014160000000     0.712470000000     0.189770000000     0.0419385  
H199     H      0.909060000000     0.791930000000     0.318290000000     0.0469831  
H200     H      0.016860000000     0.800260000000     0.147490000000     0.155794   
H201     H      0.205790000000     0.733710000000     0.965280000000     0.0474037  
H202     H      0.251950000000     0.839350000000     0.928670000000     0.0427936  
H203     H      0.311340000000     0.763510000000     0.936790000000     0.0466571  
H204     H      0.169860000000     0.758220000000     0.065060000000     0.0505053  
H205     H      0.276920000000     0.835510000000     0.883330000000     0.0622242  
H206     H      0.242110000000     0.708960000000     0.026040000000     0.041302   
H207     H      0.174290000000     0.776280000000     0.016770000000     0.0429205  
H208     H      0.207600000000     0.675290000000     0.054630000000     0.0513382  
H209     H      0.350440000000     0.794370000000     0.910610000000     0.0654245  
H210     H      0.235160000000     0.757220000000     0.926900000000     0.0533245  
H211     H      0.290260000000     0.869400000000     0.901380000000     0.0516324  
H212     H      0.253240000000     0.788550000000     0.027100000000     0.0510031  
H213     H      0.286350000000     0.844550000000     0.947640000000     0.042019   
H214     H      0.139490000000     0.742430000000     0.045140000000     0.0566418  
H215     H      0.208300000000     0.698970000000     0.007720000000     0.0437737  
H216     H      0.169120000000     0.737870000000     0.002320000000     0.0441187  
H217     H      0.282900000000     0.811730000000     0.988790000000     0.0462644  
H218     H      0.320730000000     0.800300000000     0.952280000000     0.0422158  
H219     H      0.217870000000     0.710990000000     0.071640000000     0.0479478  
H220     H      0.273790000000     0.752430000000     0.885650000000     0.155984   
H221     H      0.238860000000     0.534620000000     0.183770000000     0.0470409  
H222     H      0.309770000000     0.514550000000     0.271420000000     0.0417875  
H223     H      0.247190000000     0.443760000000     0.253400000000     0.0473358  
H224     H      0.179370000000     0.629250000000     0.211950000000     0.0454527  
H225     H      0.338580000000     0.467620000000     0.268000000000     0.0617905  
H226     H      0.165080000000     0.532310000000     0.204860000000     0.0408508  
H227     H      0.227750000000     0.605100000000     0.213600000000     0.040552   
H228     H      0.135450000000     0.564570000000     0.170750000000     0.0502791  
H229     H      0.274000000000     0.408080000000     0.287540000000     0.0632855  
H230     H      0.274020000000     0.497340000000     0.204230000000     0.0517524  
H231     H      0.336860000000     0.478640000000     0.304750000000     0.0508373  
H232     H      0.202330000000     0.551280000000     0.267250000000     0.0498918  
H233     H      0.287120000000     0.499100000000     0.299720000000     0.0412666  
H234     H      0.198700000000     0.637990000000     0.179500000000     0.0513534  
H235     H      0.185910000000     0.544570000000     0.174050000000     0.044019   
H236     H      0.222660000000     0.587330000000     0.179150000000     0.0437129  
H237     H      0.237220000000     0.513620000000     0.287660000000     0.0457447  
H238     H      0.251120000000     0.458000000000     0.289110000000     0.0417023  
H239     H      0.137230000000     0.580300000000     0.206150000000     0.045365   
H240     H      0.297980000000     0.442860000000     0.209260000000     0.155719   
H241     H      0.001050000000     0.336540000000     0.745310000000     0.0467042  
H242     H      0.056810000000     0.232980000000     0.737290000000     0.0429875  
H243     H      0.015170000000     0.258750000000     0.659870000000     0.0471164  
H244     H      0.922300000000     0.310360000000     0.819020000000     0.0472068  
H245     H      0.095870000000     0.231500000000     0.702530000000     0.063316   
H246     H      0.927310000000     0.332140000000     0.730120000000     0.0407011  
H247     H      0.972430000000     0.300700000000     0.803860000000     0.0408456  
H248     H      0.900280000000     0.371990000000     0.759610000000     0.0500403  
H249     H      0.044770000000     0.217090000000     0.634190000000     0.0614099  
H250     H      0.038300000000     0.309050000000     0.716750000000     0.0520574  
H251     H      0.086430000000     0.192330000000     0.711510000000     0.0556036  
H252     H      0.946840000000     0.254120000000     0.746750000000     0.0508429  
H253     H      0.034660000000     0.205140000000     0.718080000000     0.0440104  
H254     H      0.945480000000     0.340280000000     0.833510000000     0.0508183  
H255     H      0.951330000000     0.358360000000     0.749190000000     0.0432879  
H256     H      0.977420000000     0.340150000000     0.791960000000     0.0432065  
H257     H      0.984090000000     0.226650000000     0.718090000000     0.0471879  
H258     H      0.011070000000     0.220060000000     0.673400000000     0.0424616  
H259     H      0.890740000000     0.332480000000     0.767480000000     0.0466691  
H260     H      0.070410000000     0.299610000000     0.671100000000     0.155243   
H261     H      0.800560000000     0.304780000000     0.986880000000     0.0469032  
H262     H      0.702110000000     0.279280000000     0.036200000000     0.0426882  
H263     H      0.745700000000     0.198690000000     0.005500000000     0.0472068  
H264     H      0.767410000000     0.367940000000     0.900890000000     0.0490954  
H265     H      0.705130000000     0.244520000000     0.076370000000     0.0613612  
H266     H      0.805660000000     0.279070000000     0.918630000000     0.0409826  
H267     H      0.757210000000     0.356110000000     0.950080000000     0.0422238  
H268     H      0.838820000000     0.315100000000     0.891060000000     0.0504258  
H269     H      0.709190000000     0.165330000000     0.032980000000     0.0639896  
H270     H      0.778260000000     0.272310000000     0.024150000000     0.0521566  
H271     H      0.667360000000     0.246450000000     0.064770000000     0.0537221  
H272     H      0.727850000000     0.283010000000     0.930740000000     0.051636   
H273     H      0.681810000000     0.251430000000     0.015160000000     0.0452471  
H274     H      0.790240000000     0.392460000000     0.922650000000     0.0554935  
H275     H      0.824130000000     0.307700000000     0.940340000000     0.0432323  
H276     H      0.796020000000     0.352370000000     0.958600000000     0.0442003  
H277     H      0.705510000000     0.250640000000     0.968020000000     0.0483162  
H278     H      0.707290000000     0.204770000000     0.997380000000     0.0443744  
H279     H      0.801100000000     0.314290000000     0.879010000000     0.0469066  
H280     H      0.776680000000     0.222280000000     0.058090000000     0.15517    
H281     H      0.703380000000     0.567270000000     0.718610000000     0.0468304  
H282     H      0.740130000000     0.465900000000     0.767770000000     0.0417687  
H283     H      0.807360000000     0.533090000000     0.754030000000     0.0465043  
H284     H      0.669620000000     0.533560000000     0.620460000000     0.0454614  
H285     H      0.763560000000     0.473520000000     0.813450000000     0.0628923  
H286     H      0.742330000000     0.582070000000     0.656510000000     0.040869   
H287     H      0.671490000000     0.519080000000     0.670240000000     0.040324   
H288     H      0.710480000000     0.613920000000     0.624230000000     0.0513677  
H289     H      0.842060000000     0.501850000000     0.785370000000     0.0632885  
H290     H      0.730320000000     0.547380000000     0.760190000000     0.0528167  
H291     H      0.773710000000     0.436020000000     0.800150000000     0.0518992  
H292     H      0.749590000000     0.502210000000     0.664750000000     0.0499086  
H293     H      0.774510000000     0.454420000000     0.751230000000     0.0416357  
H294     H      0.638590000000     0.550890000000     0.638380000000     0.0502843  
H295     H      0.708960000000     0.595860000000     0.673490000000     0.0440985  
H296     H      0.667390000000     0.558830000000     0.681680000000     0.0433626  
H297     H      0.776700000000     0.482480000000     0.706330000000     0.0457269  
H298     H      0.813410000000     0.493630000000     0.743260000000     0.0417742  
H299     H      0.717420000000     0.575390000000     0.611250000000     0.0459998  
H300     H      0.768770000000     0.554250000000     0.802090000000     0.155627   
H301     H      0.001650000000     0.590340000000     0.987870000000     0.0486325  
H302     H      0.987540000000     0.509400000000     0.906260000000     0.0425451  
H303     H      0.922480000000     0.504900000000     0.971320000000     0.047485   
H304     H      0.096650000000     0.558310000000     0.038230000000     0.0463627  
H305     H      0.940740000000     0.512450000000     0.881680000000     0.0646181  
H306     H      0.003990000000     0.557120000000     0.054000000000     0.0421148  
H307     H      0.072520000000     0.561930000000     0.992350000000     0.0410559  
H308     H      0.032940000000     0.591910000000     0.086570000000     0.0532016  
H309     H      0.891760000000     0.469240000000     0.940210000000     0.0621846  
H310     H      0.966480000000     0.570550000000     0.952360000000     0.0533575  
H311     H      0.956430000000     0.474950000000     0.875040000000     0.0523951  
H312     H      0.027540000000     0.496570000000     0.008190000000     0.0506952  
H313     H      0.978420000000     0.472510000000     0.922170000000     0.0416525  
H314     H      0.102040000000     0.596790000000     0.024470000000     0.0512443  
H315     H      0.013120000000     0.594160000000     0.038370000000     0.046232   
H316     H      0.053220000000     0.596970000000     0.002270000000     0.0450329  
H317     H      0.992430000000     0.476770000000     0.972580000000     0.0459706  
H318     H      0.940610000000     0.470100000000     0.959630000000     0.0415127  
H319     H      0.050180000000     0.555050000000     0.080000000000     0.0465152  
H320     H      0.912310000000     0.561740000000     0.933010000000     0.156513   
N1       N      0.077880000000     0.086320000000     0.571060000000    -0.146363   
N2       N      0.042680000000     0.053100000000     0.531760000000    -0.109695   
N3       N      0.963130000000     0.016440000000     0.443410000000    -0.11251    
N4       N      0.926390000000     0.980880000000     0.407350000000    -0.152853   
N5       N      0.663500000000     0.696780000000     0.518570000000    -0.14617    
N6       N      0.701670000000     0.737930000000     0.489560000000    -0.109736   
N7       N      0.790350000000     0.827910000000     0.463600000000    -0.112529   
N8       N      0.830190000000     0.866010000000     0.433450000000    -0.153263   
N9       N      0.191170000000     0.199200000000     0.580660000000    -0.145275   
N10      N      0.223830000000     0.233280000000     0.540030000000    -0.109872   
N11      N      0.263060000000     0.289820000000     0.436890000000    -0.112256   
N12      N      0.295800000000     0.323210000000     0.396010000000    -0.15191    
N13      N      0.555490000000     0.590270000000     0.530590000000    -0.146587   
N14      N      0.515840000000     0.553870000000     0.498320000000    -0.109449   
N15      N      0.455420000000     0.457100000000     0.439110000000    -0.112427   
N16      N      0.417440000000     0.422560000000     0.403460000000    -0.153132   
N17      N      0.828010000000     0.947630000000     0.298120000000    -0.147263   
N18      N      0.792130000000     0.977140000000     0.257000000000    -0.109886   
N19      N      0.711370000000     0.057050000000     0.199160000000    -0.112223   
N20      N      0.678810000000     0.092410000000     0.159650000000    -0.151483   
N21      N      0.404140000000     0.314750000000     0.293760000000    -0.145796   
N22      N      0.442560000000     0.282040000000     0.257100000000    -0.109988   
N23      N      0.539450000000     0.246290000000     0.186450000000    -0.112387   
N24      N      0.579090000000     0.212370000000     0.152130000000    -0.152501   
N25      N      0.173320000000     0.086930000000     0.686530000000    -0.144839   
N26      N      0.212170000000     0.050970000000     0.720250000000    -0.10952    
N27      N      0.312990000000     0.986940000000     0.764220000000    -0.112314   
N28      N      0.350100000000     0.947460000000     0.796220000000    -0.152862   
N29      N      0.438010000000     0.816030000000     0.808290000000    -0.145997   
N30      N      0.474230000000     0.781090000000     0.771150000000    -0.10934    
N31      N      0.546210000000     0.742660000000     0.677740000000    -0.112314   
N32      N      0.576170000000     0.707330000000     0.636210000000    -0.152441   
N33      N      0.572100000000     0.098300000000     0.047040000000    -0.146814   
N34      N      0.535870000000     0.061460000000     0.011540000000    -0.109931   
N35      N      0.481180000000     0.963480000000     0.948870000000    -0.112264   
N36      N      0.445160000000     0.928010000000     0.912070000000    -0.152414   
N37      N      0.065920000000     0.723220000000     0.157050000000    -0.14677    
N38      N      0.030720000000     0.758600000000     0.194700000000    -0.109836   
N39      N      0.961180000000     0.799630000000     0.288930000000    -0.112512   
N40      N      0.926990000000     0.836430000000     0.326140000000    -0.151742   
N41      N      0.320720000000     0.831020000000     0.898800000000    -0.146971   
N42      N      0.278520000000     0.798670000000     0.931800000000    -0.109262   
N43      N      0.211030000000     0.745920000000     0.022390000000    -0.112018   
N44      N      0.173510000000     0.710060000000     0.057270000000    -0.151569   
N45      N      0.311140000000     0.438560000000     0.292960000000    -0.146928   
N46      N      0.278880000000     0.480060000000     0.258350000000    -0.109845   
N47      N      0.196830000000     0.567790000000     0.212970000000    -0.112527   
N48      N      0.162770000000     0.605190000000     0.176140000000    -0.153373   
N49      N      0.072980000000     0.207700000000     0.669840000000    -0.145587   
N50      N      0.036970000000     0.250380000000     0.699390000000    -0.109881   
N51      N      0.949170000000     0.312150000000     0.765850000000    -0.112161   
N52      N      0.916370000000     0.354100000000     0.799480000000    -0.152724   
N53      N      0.690370000000     0.203720000000     0.055680000000    -0.145818   
N54      N      0.727660000000     0.240900000000     0.021630000000    -0.10985    
N55      N      0.777800000000     0.315440000000     0.933630000000    -0.11219    
N56      N      0.812740000000     0.355700000000     0.900390000000    -0.151752   
N57      N      0.808150000000     0.470740000000     0.799760000000    -0.146714   
N58      N      0.770890000000     0.502700000000     0.761410000000    -0.109674   
N59      N      0.709500000000     0.547380000000     0.663440000000    -0.11254    
N60      N      0.673620000000     0.582050000000     0.625920000000    -0.153019   
N61      N      0.918700000000     0.475930000000     0.903110000000    -0.146421   
N62      N      0.955280000000     0.511670000000     0.939240000000    -0.109823   
N63      N      0.037680000000     0.555400000000     0.022300000000    -0.112224   
N64      N      0.071590000000     0.592560000000     0.059600000000    -0.152046   
O1       O      0.853620000000     0.461310000000     0.820430000000    -0.237997   
O2       O      0.851400000000     0.365310000000     0.869680000000    -0.249517   
O3       O      0.877920000000     0.445040000000     0.894920000000    -0.239708   
O4       O      0.881390000000     0.392560000000     0.805210000000    -0.251871   
O5       O      0.905140000000     0.377230000000     0.842360000000    -0.247155   
O6       O      0.910320000000     0.448590000000     0.861670000000    -0.246681   
O7       O      0.819180000000     0.427630000000     0.826690000000    -0.248011   
O8       O      0.826770000000     0.404440000000     0.885400000000    -0.237514   
O9       O      0.125420000000     0.611540000000     0.143230000000    -0.253716   
O10      O      0.109560000000     0.697530000000     0.147830000000    -0.250997   
O11      O      0.111220000000     0.624720000000     0.068970000000    -0.250336   
O12      O      0.163840000000     0.667230000000     0.085100000000    -0.246473   
O13      O      0.129030000000     0.700850000000     0.079810000000    -0.243922   
O14      O      0.075960000000     0.623020000000     0.099720000000    -0.242982   
O15      O      0.157980000000     0.647590000000     0.146690000000    -0.247692   
O16      O      0.071470000000     0.685170000000     0.122910000000    -0.238738   
O17      O      0.363780000000     0.898060000000     0.809350000000    -0.245079   
O18      O      0.432850000000     0.853320000000     0.843110000000    -0.245139   
O19      O      0.337460000000     0.875140000000     0.876130000000    -0.249673   
O20      O      0.402100000000     0.901470000000     0.901840000000    -0.250715   
O21      O      0.431700000000     0.911790000000     0.867160000000    -0.246055   
O22      O      0.367870000000     0.837210000000     0.881030000000    -0.238478   
O23      O      0.371880000000     0.934880000000     0.839080000000    -0.251762   
O24      O      0.394820000000     0.842640000000     0.817440000000    -0.232919   
O25      O      0.591200000000     0.189180000000     0.109500000000    -0.241968   
O26      O      0.671200000000     0.156480000000     0.069570000000    -0.234835   
O27      O      0.584590000000     0.118200000000     0.090970000000    -0.248314   
O28      O      0.638110000000     0.101320000000     0.131110000000    -0.250256   
O29      O      0.672570000000     0.135670000000     0.131640000000    -0.240834   
O30      O      0.615220000000     0.125000000000     0.056560000000    -0.241068   
O31      O      0.614030000000     0.173880000000     0.147140000000    -0.251366   
O32      O      0.649760000000     0.197870000000     0.084840000000    -0.245217   
O33      O      0.316650000000     0.391750000000     0.315930000000    -0.236469   
O34      O      0.372870000000     0.398610000000     0.394050000000    -0.252782   
O35      O      0.370130000000     0.353580000000     0.301710000000    -0.232925   
O36      O      0.337470000000     0.328290000000     0.368190000000    -0.244565   
O37      O      0.313100000000     0.369700000000     0.378370000000    -0.247345   
O38      O      0.393680000000     0.335520000000     0.337850000000    -0.245573   
O39      O      0.348700000000     0.427390000000     0.324650000000    -0.249472   
O40      O      0.403480000000     0.404180000000     0.359410000000    -0.249627   
O41      O      0.598960000000     0.617610000000     0.535910000000    -0.238232   
O42      O      0.575660000000     0.674970000000     0.597240000000    -0.242444   
O43      O      0.657350000000     0.652920000000     0.545940000000    -0.243267   
O44      O      0.628020000000     0.595190000000     0.607310000000    -0.252149   
O45      O      0.664070000000     0.627050000000     0.601230000000    -0.247901   
O46      O      0.624680000000     0.689000000000     0.549630000000    -0.240378   
O47      O      0.572020000000     0.610680000000     0.573100000000    -0.243503   
O48      O      0.615670000000     0.677250000000     0.621850000000    -0.253186   
O49      O      0.869000000000     0.946370000000     0.327360000000    -0.251903   
O50      O      0.885350000000     0.949760000000     0.401890000000    -0.252416   
O51      O      0.884340000000     0.864320000000     0.334040000000    -0.242204   
O52      O      0.870400000000     0.869380000000     0.403440000000    -0.252904   
O53      O      0.836030000000     0.903610000000     0.399080000000    -0.245975   
O54      O      0.923480000000     0.878050000000     0.356840000000    -0.245562   
O55      O      0.834420000000     0.913220000000     0.335100000000    -0.240292   
O56      O      0.921630000000     0.943030000000     0.372920000000    -0.244879   
O57      O      0.088000000000     0.182130000000     0.629190000000    -0.235981   
O58      O      0.147740000000     0.192690000000     0.605590000000    -0.238457   
O59      O      0.084380000000     0.113540000000     0.612890000000    -0.236694   
O60      O      0.144270000000     0.093870000000     0.646700000000    -0.234038   
O61      O      0.159640000000     0.134570000000     0.668540000000    -0.237875   
O62      O      0.119110000000     0.115630000000     0.581640000000    -0.247977   
O63      O      0.108760000000     0.169600000000     0.668800000000    -0.239085   
O64      O      0.175050000000     0.152600000000     0.599110000000    -0.241524   
O65      O      0.065190000000     0.009730000000     0.576370000000    -0.263307   
O66      O      0.023020000000     0.027420000000     0.614650000000    -0.172344   
O67      O      0.080160000000     0.042250000000     0.623790000000    -0.134797   
O68      O      0.656460000000     0.717040000000     0.448320000000    -0.263772   
O69      O      0.610980000000     0.751900000000     0.469180000000    -0.17074    
O70      O      0.611270000000     0.690060000000     0.477410000000    -0.134257   
O71      O      0.260620000000     0.227560000000     0.592100000000    -0.265126   
O72      O      0.276350000000     0.167280000000     0.583000000000    -0.176827   
O73      O      0.238310000000     0.181420000000     0.625210000000    -0.150395   
O74      O      0.505520000000     0.620340000000     0.485000000000    -0.264393   
O75      O      0.552910000000     0.623880000000     0.449110000000    -0.168326   
O76      O      0.554150000000     0.653990000000     0.499310000000    -0.133639   
O77      O      0.818990000000     0.920410000000     0.231430000000    -0.26613    
O78      O      0.779190000000     0.881550000000     0.256670000000    -0.176522   
O79      O      0.836180000000     0.881120000000     0.273540000000    -0.150481   
O80      O      0.385200000000     0.248230000000     0.259780000000    -0.266237   
O81      O      0.356510000000     0.287910000000     0.223930000000    -0.168128   
O82      O      0.342600000000     0.287160000000     0.279660000000    -0.143608   
O83      O      0.150270000000     0.039540000000     0.739600000000    -0.265009   
O84      O      0.137220000000     0.000450000000     0.695700000000    -0.167849   
O85      O      0.112010000000     0.057020000000     0.697910000000    -0.13845    
O86      O      0.440770000000     0.736680000000     0.806540000000    -0.264285   
O87      O      0.387850000000     0.743850000000     0.779330000000    -0.168338   
O88      O      0.395260000000     0.767130000000     0.832050000000    -0.134132   
O89      O      0.526520000000     0.128630000000     0.998240000000    -0.265692   
O90      O      0.576150000000     0.130940000000     0.965190000000    -0.177723   
O91      O      0.574570000000     0.161950000000     0.014910000000    -0.149173   
O92      O      0.036470000000     0.793430000000     0.140390000000    -0.265905   
O93      O      0.996300000000     0.758130000000     0.111560000000    -0.174367   
O94      O      0.054280000000     0.753920000000     0.098680000000    -0.148752   
O95      O      0.279380000000     0.770850000000     0.874240000000    -0.26415    
O96      O      0.330500000000     0.738370000000     0.882650000000    -0.166815   
O97      O      0.330150000000     0.787510000000     0.847260000000    -0.133892   
O98      O      0.314370000000     0.436630000000     0.222070000000    -0.265259   
O99      O      0.272200000000     0.391610000000     0.226890000000    -0.172791   
O100     O      0.325610000000     0.383480000000     0.251220000000    -0.139506   
O101     O      0.085930000000     0.283550000000     0.668860000000    -0.264803   
O102     O      0.054000000000     0.282990000000     0.619560000000    -0.178959   
O103     O      0.104210000000     0.249610000000     0.623410000000    -0.146332   
O104     O      0.761140000000     0.218790000000     0.072630000000    -0.266181   
O105     O      0.771590000000     0.161970000000     0.049110000000    -0.176921   
O106     O      0.734840000000     0.167090000000     0.094000000000    -0.149295   
O107     O      0.772540000000     0.537400000000     0.815970000000    -0.263211   
O108     O      0.826430000000     0.563530000000     0.805260000000    -0.171362   
O109     O      0.821120000000     0.520140000000     0.846180000000    -0.132804   
O110     O      0.906670000000     0.551120000000     0.915110000000    -0.260701   
O111     O      0.867800000000     0.530440000000     0.955310000000    -0.172976   
O112     O      0.859910000000     0.514850000000     0.900350000000    -0.131664   
S1       S      0.054390000000     0.037800000000     0.599000000000     0.29001    
S2       S      0.632400000000     0.721410000000     0.475380000000     0.289634   
S3       S      0.248810000000     0.190530000000     0.592460000000     0.288936   
S4       S      0.542690000000     0.622110000000     0.482970000000     0.291515   
S5       S      0.808780000000     0.903510000000     0.262190000000     0.289017   
S6       S      0.370070000000     0.283730000000     0.256490000000     0.292364   
S7       S      0.142690000000     0.037220000000     0.704590000000     0.291625   
S8       S      0.411850000000     0.760600000000     0.801160000000     0.290919   
S9       S      0.563760000000     0.129920000000     0.998400000000     0.289125   
S10      S      0.030250000000     0.758790000000     0.124960000000     0.289207   
S11      S      0.316430000000     0.773420000000     0.877310000000     0.291738   
S12      S      0.299730000000     0.409420000000     0.243560000000     0.290337   
S13      S      0.074700000000     0.261700000000     0.641200000000     0.288943   
S14      S      0.746160000000     0.184200000000     0.064350000000     0.288918   
S15      S      0.809270000000     0.531000000000     0.814330000000     0.289669   
S16      S      0.885070000000     0.521310000000     0.925320000000     0.290126   


