data_structure

_audit_creation_method RASPA-1.0
_audit_creation_date 2023-6-5
_audit_author_name 'Poobodin Mano'

_cell_length_a    54.9201
_cell_length_b    55.6636
_cell_length_c    30.348
_cell_angle_alpha 90.0333
_cell_angle_beta  89.9098
_cell_angle_gamma 90
_cell_volume      92775.2

_symmetry_cell_setting          triclinic
_symmetry_space_group_name_Hall 'P 1'
_symmetry_space_group_name_H-M  'P 1'
_symmetry_Int_Tables_number     1

_symmetry_equiv_pos_as_xyz 'x,y,z'

loop_
_atom_site_label
_atom_site_type_symbol
_atom_site_fract_x
_atom_site_fract_y
_atom_site_fract_z
_atom_site_charge
C1       C      0.391040000000     0.345740000000     0.974060000000     0.340188   
C2       C      0.338880000000     0.319540000000     0.079830000000     0.347907   
C3       C      0.316620000000     0.378480000000     0.960120000000     0.349094   
C4       C      0.315520000000     0.297410000000     0.940000000000     0.337806   
C5       C      0.349280000000     0.620290000000     0.974900000000     0.341289   
C6       C      0.324120000000     0.692170000000     0.046810000000     0.340556   
C7       C      0.402340000000     0.685440000000     0.984590000000     0.349976   
C8       C      0.332230000000     0.693060000000     0.895230000000     0.339721   
C9       C      0.644090000000     0.363240000000     0.958360000000     0.346687   
C10      C      0.721280000000     0.334380000000     0.890320000000     0.347847   
C11      C      0.715740000000     0.405570000000     0.955150000000     0.34172    
C12      C      0.705360000000     0.328690000000     0.040610000000     0.338712   
C13      C      0.726780000000     0.648540000000     0.998710000000     0.34763    
C14      C      0.732270000000     0.731890000000     0.986720000000     0.350901   
C15      C      0.654510000000     0.687500000000     0.014570000000     0.339466   
C16      C      0.707910000000     0.706560000000     0.121140000000     0.348369   
C17      C      0.835370000000     0.220290000000     0.534200000000     0.336696   
C18      C      0.850980000000     0.146690000000     0.481420000000     0.338114   
C19      C      0.825610000000     0.213850000000     0.383960000000     0.350274   
C20      C      0.903090000000     0.209560000000     0.427380000000     0.348428   
C21      C      0.828860000000     0.837350000000     0.621790000000     0.339302   
C22      C      0.888140000000     0.829500000000     0.495710000000     0.34885    
C23      C      0.807320000000     0.817320000000     0.479230000000     0.336705   
C24      C      0.842140000000     0.896780000000     0.525560000000     0.348321   
C25      C      0.213150000000     0.812980000000     0.397560000000     0.352475   
C26      C      0.137800000000     0.829940000000     0.470270000000     0.340219   
C27      C      0.211410000000     0.805500000000     0.545840000000     0.350173   
C28      C      0.201250000000     0.883510000000     0.487560000000     0.350486   
C29      C      0.232470000000     0.210890000000     0.434850000000     0.338324   
C30      C      0.197310000000     0.132790000000     0.484760000000     0.336235   
C31      C      0.212360000000     0.191490000000     0.578530000000     0.349793   
C32      C      0.150440000000     0.199340000000     0.456560000000     0.339221   
C33      C      0.226610000000     0.945620000000     0.470900000000    -0.0292779  
C34      C      0.184610000000     0.068640000000     0.514900000000    -0.0272639  
C35      C      0.214020000000     0.096000000000     0.452190000000    -0.0109281  
C36      C      0.189280000000     0.095230000000     0.524160000000    -0.0117956  
C37      C      0.223700000000     0.019990000000     0.511050000000    -0.0504592  
C38      C      0.186460000000     0.994550000000     0.468970000000    -0.0509266  
C39      C      0.205020000000     0.032570000000     0.489930000000     0.0642908  
C40      C      0.207850000000     0.069340000000     0.447310000000    -0.0278382  
C41      C      0.205140000000     0.981950000000     0.490250000000     0.0636981  
C42      C      0.200080000000     0.946450000000     0.535040000000    -0.0517182  
C43      C      0.223840000000     0.994920000000     0.511300000000    -0.0540394  
C44      C      0.202000000000     0.918590000000     0.537700000000     0.0916146  
C45      C      0.221900000000     0.919320000000     0.460170000000    -0.000747891
C46      C      0.186340000000     0.019690000000     0.468700000000    -0.0543729  
C47      C      0.946250000000     0.827070000000     0.430160000000    -0.0288531  
C48      C      0.073790000000     0.814420000000     0.499830000000    -0.0279531  
C49      C      0.100230000000     0.839220000000     0.429810000000    -0.0107113  
C50      C      0.100650000000     0.808480000000     0.492310000000    -0.0110913  
C51      C      0.022450000000     0.806630000000     0.435670000000    -0.0508066  
C52      C      0.998990000000     0.839130000000     0.491790000000    -0.0509279  
C53      C      0.036320000000     0.822600000000     0.460900000000     0.0640416  
C54      C      0.073380000000     0.843570000000     0.440640000000    -0.0281177  
C55      C      0.985110000000     0.822990000000     0.466840000000     0.0638354  
C56      C      0.950280000000     0.800860000000     0.493380000000    -0.0514006  
C57      C      0.997070000000     0.806750000000     0.438490000000    -0.0543255  
C58      C      0.922150000000     0.800420000000     0.498680000000     0.0916781  
C59      C      0.919910000000     0.834060000000     0.439800000000    -0.000842701
C60      C      0.024410000000     0.839030000000     0.488900000000    -0.0543189  
C61      C      0.858120000000     0.960680000000     0.552650000000    -0.0286946  
C62      C      0.832060000000     0.082910000000     0.475870000000    -0.0277954  
C63      C      0.865950000000     0.112690000000     0.525820000000    -0.0106564  
C64      C      0.826540000000     0.109610000000     0.482190000000    -0.0116109  
C65      C      0.835280000000     0.035140000000     0.546770000000    -0.0511078  
C66      C      0.860830000000     0.010250000000     0.481320000000    -0.0504308  
C67      C      0.847500000000     0.048010000000     0.513890000000     0.0643662  
C68      C      0.869570000000     0.085770000000     0.517700000000    -0.0282775  
C69      C      0.848470000000     0.997350000000     0.514070000000     0.0634202  
C70      C      0.824080000000     0.961940000000     0.503140000000    -0.0532778  
C71      C      0.835660000000     0.010060000000     0.546960000000    -0.0535445  
C72      C      0.824590000000     0.934650000000     0.494570000000     0.0912428  
C73      C      0.862480000000     0.933950000000     0.545410000000    -0.00929347 
C74      C      0.860370000000     0.035380000000     0.481050000000    -0.0541592  
C75      C      0.964640000000     0.238970000000     0.421910000000    -0.0287416  
C76      C      0.089540000000     0.192120000000     0.408830000000    -0.0286235  
C77      C      0.116200000000     0.228110000000     0.459280000000    -0.0106082  
C78      C      0.117080000000     0.194670000000     0.402740000000    -0.0105575  
C79      C      0.040470000000     0.229090000000     0.389000000000    -0.0510009  
C80      C      0.013580000000     0.201000000000     0.448000000000    -0.0507988  
C81      C      0.052670000000     0.215050000000     0.420210000000     0.0638163  
C82      C      0.088680000000     0.224340000000     0.463100000000    -0.0285957  
C83      C      0.001370000000     0.215170000000     0.416960000000     0.0637835  
C84      C      0.965490000000     0.203260000000     0.376380000000    -0.0512062  
C85      C      0.015050000000     0.229160000000     0.387190000000    -0.0543681  
C86      C      0.937170000000     0.203170000000     0.375110000000     0.0915006  
C87      C      0.937890000000     0.236570000000     0.434690000000    -0.00115673 
C88      C      0.039020000000     0.200850000000     0.449670000000    -0.0540859  
C89      C      0.782290000000     0.768350000000     0.934740000000    -0.0278614  
C90      C      0.789070000000     0.825340000000     0.716690000000    -0.0283197  
C91      C      0.841070000000     0.825730000000     0.697120000000    -0.0106375  
C92      C      0.799080000000     0.842630000000     0.682000000000    -0.0110017  
C93      C      0.797810000000     0.818790000000     0.828860000000    -0.0502104  
C94      C      0.778110000000     0.772720000000     0.819660000000    -0.0502766  
C95      C      0.798030000000     0.807630000000     0.787510000000     0.0641851  
C96      C      0.829390000000     0.809070000000     0.731260000000    -0.0285602  
C97      C      0.777560000000     0.784030000000     0.860890000000     0.0651237  
C98      C      0.743450000000     0.784360000000     0.911140000000    -0.051147   
C99      C      0.787720000000     0.807160000000     0.865330000000    -0.0542967  
C100     C      0.730730000000     0.771630000000     0.950480000000     0.0922151  
C101     C      0.771380000000     0.749470000000     0.965440000000    -0.00121653 
C102     C      0.788300000000     0.784340000000     0.783190000000    -0.0530842  
C103     C      0.722560000000     0.707520000000     0.242220000000    -0.0286773  
C104     C      0.765380000000     0.804200000000     0.388360000000    -0.0279839  
C105     C      0.791480000000     0.777700000000     0.456360000000    -0.011211   
C106     C      0.770390000000     0.816050000000     0.432920000000    -0.0115566  
C107     C      0.732280000000     0.754210000000     0.355610000000    -0.0501321  
C108     C      0.758800000000     0.755810000000     0.276910000000    -0.0496546  
C109     C      0.754600000000     0.766330000000     0.354410000000     0.0647224  
C110     C      0.785730000000     0.767340000000     0.410830000000    -0.0280693  
C111     C      0.736340000000     0.743890000000     0.277990000000     0.0647093  
C112     C      0.705180000000     0.745990000000     0.222130000000    -0.05116    
C113     C      0.723170000000     0.743050000000     0.317850000000    -0.0538263  
C114     C      0.694500000000     0.734540000000     0.179640000000     0.0916261  
C115     C      0.720140000000     0.696530000000     0.196360000000    -0.000762233
C116     C      0.767960000000     0.766910000000     0.314760000000    -0.0532367  
C117     C      0.772200000000     0.316060000000     0.814960000000    -0.0288693  
C118     C      0.790250000000     0.243640000000     0.615840000000    -0.027956   
C119     C      0.842820000000     0.244000000000     0.601210000000    -0.0110365  
C120     C      0.799950000000     0.239050000000     0.569410000000    -0.0111414  
C121     C      0.790930000000     0.293550000000     0.682060000000    -0.0510826  
C122     C      0.778410000000     0.263370000000     0.752160000000    -0.0508217  
C123     C      0.796260000000     0.269010000000     0.679450000000     0.0640646  
C124     C      0.830710000000     0.248480000000     0.645950000000    -0.0280845  
C125     C      0.772710000000     0.287880000000     0.754480000000     0.0632708  
C126     C      0.734840000000     0.304870000000     0.779330000000    -0.0534265  
C127     C      0.779260000000     0.302980000000     0.719110000000    -0.0537993  
C128     C      0.719090000000     0.311100000000     0.819790000000     0.0912061  
C129     C      0.759700000000     0.321280000000     0.858750000000    -0.0092956  
C130     C      0.790090000000     0.253920000000     0.714990000000    -0.054356   
C131     C      0.787350000000     0.256190000000     0.317610000000    -0.028249   
C132     C      0.728310000000     0.277660000000     0.104580000000    -0.0284605  
C133     C      0.712100000000     0.326750000000     0.120980000000    -0.0110095  
C134     C      0.708400000000     0.288740000000     0.075760000000    -0.0109695  
C135     C      0.732960000000     0.265300000000     0.216930000000    -0.0508949  
C136     C      0.783490000000     0.264230000000     0.205300000000    -0.0505447  
C137     C      0.743270000000     0.276070000000     0.179640000000     0.0641279  
C138     C      0.731930000000     0.314320000000     0.147940000000    -0.0283097  
C139     C      0.773200000000     0.253670000000     0.242870000000     0.0639815  
C140     C      0.784480000000     0.217640000000     0.282420000000    -0.0527925  
C141     C      0.747710000000     0.254210000000     0.248360000000    -0.0537604  
C142     C      0.803670000000     0.206130000000     0.312950000000     0.091263   
C143     C      0.808120000000     0.248500000000     0.347470000000    -0.00917471 
C144     C      0.768720000000     0.275380000000     0.173880000000    -0.0538987  
C145     C      0.757760000000     0.588310000000     0.997980000000    -0.0286172  
C146     C      0.716200000000     0.469330000000     0.924520000000    -0.0285983  
C147     C      0.743380000000     0.437290000000     0.982390000000    -0.00985099 
C148     C      0.719520000000     0.442940000000     0.911850000000    -0.0100453  
C149     C      0.755870000000     0.516930000000     0.940530000000    -0.0508126  
C150     C      0.718090000000     0.539590000000     0.986420000000    -0.0500666  
C151     C      0.736820000000     0.503120000000     0.957870000000     0.0644254  
C152     C      0.739140000000     0.463930000000     0.992360000000    -0.0287359  
C153     C      0.737060000000     0.553420000000     0.968840000000     0.064056   
C154     C      0.733160000000     0.591780000000     0.932120000000    -0.0514713  
C155     C      0.756080000000     0.541860000000     0.945920000000    -0.0540598  
C156     C      0.732720000000     0.619540000000     0.937760000000     0.0917257  
C157     C      0.752310000000     0.613620000000     0.014610000000    -0.00117343 
C158     C      0.717920000000     0.514640000000     0.981140000000    -0.0539027  
C159     C      0.250760000000     0.792810000000     0.643160000000    -0.0282074  
C160     C      0.295350000000     0.699480000000     0.793640000000    -0.0282044  
C161     C      0.327010000000     0.728940000000     0.848770000000    -0.011343   
C162     C      0.315380000000     0.687400000000     0.820730000000    -0.0107253  
C163     C      0.296560000000     0.740790000000     0.708010000000    -0.0502107  
C164     C      0.247710000000     0.750680000000     0.726910000000    -0.0506681  
C165     C      0.287040000000     0.734700000000     0.749320000000     0.0643289  
C166     C      0.306420000000     0.739070000000     0.820490000000    -0.0278666  
C167     C      0.257280000000     0.756920000000     0.685650000000     0.0641049  
C168     C      0.238580000000     0.754480000000     0.613830000000    -0.0537258  
C169     C      0.281900000000     0.751790000000     0.676370000000    -0.0534074  
C170     C      0.219520000000     0.765720000000     0.582760000000     0.0924578  
C171     C      0.231530000000     0.806310000000     0.617020000000    -0.0107061  
C172     C      0.262410000000     0.739660000000     0.758600000000    -0.053918   
C173     C      0.218180000000     0.776670000000     0.294880000000    -0.0290903  
C174     C      0.311400000000     0.726610000000     0.148810000000    -0.0282435  
C175     C      0.284400000000     0.700090000000     0.081840000000    -0.0103408  
C176     C      0.324140000000     0.706540000000     0.123390000000    -0.0105865  
C177     C      0.264820000000     0.727080000000     0.223540000000    -0.0506401  
C178     C      0.260730000000     0.776490000000     0.208570000000    -0.0507292  
C179     C      0.273350000000     0.736780000000     0.183900000000     0.0642837  
C180     C      0.273460000000     0.720390000000     0.109640000000    -0.0285015  
C181     C      0.252490000000     0.766820000000     0.248520000000     0.0638894  
C182     C      0.259070000000     0.783450000000     0.320720000000    -0.0541183  
C183     C      0.254510000000     0.741880000000     0.255670000000    -0.0536948  
C184     C      0.250990000000     0.802820000000     0.353950000000     0.0929125  
C185     C      0.207810000000     0.796460000000     0.324010000000    -0.00974405 
C186     C      0.271120000000     0.761650000000     0.176430000000    -0.0539981  
C187     C      0.464470000000     0.693680000000     0.034080000000    -0.0297377  
C188     C      0.592320000000     0.691810000000     0.963160000000    -0.0272418  
C189     C      0.614730000000     0.679000000000     0.047320000000    -0.0121368  
C190     C      0.618910000000     0.698790000000     0.970830000000    -0.0110903  
C191     C      0.539610000000     0.711500000000     0.013670000000    -0.050157   
C192     C      0.515620000000     0.671420000000     0.978940000000    -0.0504991  
C193     C      0.553170000000     0.691560000000     0.000040000000     0.0652303  
C194     C      0.588420000000     0.673390000000     0.034710000000    -0.0265937  
C195     C      0.502010000000     0.691270000000     0.993180000000     0.063757   
C196     C      0.466070000000     0.707510000000     0.958190000000    -0.0516665  
C197     C      0.514280000000     0.711460000000     0.010260000000    -0.0533541  
C198     C      0.437730000000     0.709060000000     0.958310000000     0.0913839  
C199     C      0.438130000000     0.685400000000     0.031900000000    -0.000234368
C200     C      0.541040000000     0.671510000000     0.982210000000    -0.054342   
C201     C      0.250510000000     0.192460000000     0.681290000000    -0.0294235  
C202     C      0.267140000000     0.271970000000     0.871980000000    -0.028143   
C203     C      0.317540000000     0.260770000000     0.894020000000    -0.0110518  
C204     C      0.276980000000     0.277900000000     0.917860000000    -0.0113167  
C205     C      0.258860000000     0.219180000000     0.813480000000    -0.0508518  
C206     C      0.258010000000     0.246890000000     0.736620000000    -0.0508558  
C207     C      0.269000000000     0.242250000000     0.813840000000     0.063929   
C208     C      0.306250000000     0.255440000000     0.849010000000    -0.028287   
C209     C      0.248070000000     0.223710000000     0.736150000000     0.0636182  
C210     C      0.211550000000     0.210930000000     0.698230000000    -0.051236   
C211     C      0.248460000000     0.209930000000     0.775090000000    -0.0542403  
C212     C      0.200670000000     0.198890000000     0.656280000000     0.0911051  
C213     C      0.244760000000     0.187990000000     0.632960000000    -0.0003839  
C214     C      0.268400000000     0.256160000000     0.775080000000    -0.0541522  
C215     C      0.324310000000     0.317210000000     0.200900000000    -0.0282417  
C216     C      0.275130000000     0.222140000000     0.343530000000    -0.0284816  
C217     C      0.249650000000     0.249790000000     0.411010000000    -0.0110354  
C218     C      0.269210000000     0.210500000000     0.387910000000    -0.0109149  
C219     C      0.311310000000     0.269970000000     0.311870000000    -0.0506967  
C220     C      0.285150000000     0.270660000000     0.232870000000    -0.05073    
C221     C      0.288190000000     0.259430000000     0.310180000000     0.0637534  
C222     C      0.256380000000     0.259860000000     0.365670000000    -0.028425   
C223     C      0.308330000000     0.281130000000     0.234510000000     0.0641848  
C224     C      0.339420000000     0.278200000000     0.178310000000    -0.0513172  
C225     C      0.321360000000     0.280740000000     0.274470000000    -0.0543933  
C226     C      0.350820000000     0.289820000000     0.136480000000     0.0915837  
C227     C      0.327320000000     0.328840000000     0.155730000000    -0.00184362 
C228     C      0.275080000000     0.259900000000     0.270320000000    -0.0538244  
C229     C      0.579680000000     0.357560000000     0.917310000000    -0.0280397  
C230     C      0.453920000000     0.365820000000     0.998300000000    -0.0287925  
C231     C      0.427490000000     0.342240000000     0.927010000000    -0.0101897  
C232     C      0.426670000000     0.370600000000     0.992750000000    -0.00987794 
C233     C      0.504170000000     0.377700000000     0.933120000000    -0.0510062  
C234     C      0.529520000000     0.343680000000     0.982950000000    -0.0500293  
C235     C      0.491190000000     0.360380000000     0.956910000000     0.0642501  
C236     C      0.454720000000     0.338790000000     0.935540000000    -0.0284936  
C237     C      0.542520000000     0.361020000000     0.959120000000     0.063626   
C238     C      0.578430000000     0.382820000000     0.981320000000    -0.052794   
C239     C      0.529580000000     0.378100000000     0.934110000000    -0.0537333  
C240     C      0.606180000000     0.381240000000     0.988900000000     0.0911604  
C241     C      0.606540000000     0.351530000000     0.922290000000    -0.00840845 
C242     C      0.504060000000     0.343290000000     0.981950000000    -0.053992   
C243     C      0.325820000000     0.435460000000     0.916290000000    -0.030045   
C244     C      0.323880000000     0.560000000000     0.995760000000    -0.0283801  
C245     C      0.364080000000     0.581370000000     0.946550000000    -0.010638   
C246     C      0.335340000000     0.583400000000     0.012040000000    -0.0107409  
C247     C      0.345550000000     0.502100000000     0.982710000000    -0.0508372  
C248     C      0.305420000000     0.493890000000     0.928110000000    -0.0515656  
C249     C      0.333690000000     0.521600000000     0.963090000000     0.0637505  
C250     C      0.351410000000     0.558000000000     0.933090000000    -0.0284285  
C251     C      0.317160000000     0.474390000000     0.948040000000     0.0642332  
C252     C      0.299110000000     0.438990000000     0.981080000000    -0.0563568  
C253     C      0.337450000000     0.478670000000     0.975300000000    -0.0541107  
C254     C      0.287660000000     0.414440000000     0.970320000000     0.0950281  
C255     C      0.314670000000     0.410960000000     0.905260000000    -0.0115089  
C256     C      0.313570000000     0.517340000000     0.935430000000    -0.0541027  
Cd1      Cd     0.340290000000     0.334710000000     0.988770000000     0.512226   
Cd2      Cd     0.351790000000     0.672150000000     0.974610000000     0.509599   
Cd3      Cd     0.696440000000     0.357460000000     0.962860000000     0.512597   
Cd4      Cd     0.706050000000     0.693250000000     0.029280000000     0.514162   
Cd5      Cd     0.854710000000     0.196780000000     0.456860000000     0.511958   
Cd6      Cd     0.841770000000     0.844960000000     0.530460000000     0.512624   
Cd7      Cd     0.190170000000     0.833360000000     0.475010000000     0.515422   
Cd8      Cd     0.197800000000     0.184540000000     0.487970000000     0.509209   
H1       H      0.171700000000     0.029050000000     0.452180000000     0.045135   
H2       H      0.231420000000     0.955070000000     0.439730000000     0.0413676  
H3       H      0.181440000000     0.951900000000     0.545500000000     0.0498324  
H4       H      0.233350000000     0.097670000000     0.462680000000     0.0490039  
H5       H      0.211760000000     0.918210000000     0.428490000000     0.0495539  
H6       H      0.182010000000     0.059280000000     0.546980000000     0.0414199  
H7       H      0.222780000000     0.060500000000     0.428480000000     0.0399756  
H8       H      0.172150000000     0.103480000000     0.536630000000     0.0537857  
H9       H      0.171940000000     0.984840000000     0.452700000000     0.0505812  
H10      H      0.239570000000     0.909970000000     0.454880000000     0.0565831  
H11      H      0.238160000000     0.029690000000     0.527530000000     0.0517002  
H12      H      0.242420000000     0.947170000000     0.493640000000     0.053868   
H13      H      0.212450000000     0.104750000000     0.419370000000     0.0499326  
H14      H      0.183810000000     0.912170000000     0.549090000000     0.0419508  
H15      H      0.167510000000     0.066670000000     0.495500000000     0.0412792  
H16      H      0.190710000000     0.067350000000     0.428060000000     0.0410005  
H17      H      0.238480000000     0.985680000000     0.528070000000     0.0493052  
H18      H      0.212780000000     0.954770000000     0.559240000000     0.0581649  
H19      H      0.203010000000     0.096720000000     0.550940000000     0.0523078  
H20      H      0.034740000000     0.851550000000     0.508740000000     0.0454789  
H21      H      0.954990000000     0.841950000000     0.411370000000     0.0403566  
H22      H      0.958720000000     0.799490000000     0.526630000000     0.050381   
H23      H      0.101400000000     0.827550000000     0.400140000000     0.047832   
H24      H      0.919070000000     0.853840000000     0.445100000000     0.0492359  
H25      H      0.064650000000     0.798190000000     0.513500000000     0.0409376  
H26      H      0.063920000000     0.849190000000     0.409900000000     0.0395607  
H27      H      0.109480000000     0.805770000000     0.524890000000     0.0524568  
H28      H      0.990060000000     0.851670000000     0.513810000000     0.0513249  
H29      H      0.908430000000     0.830110000000     0.410530000000     0.0529167  
H30      H      0.031380000000     0.793900000000     0.414020000000     0.0508722  
H31      H      0.946680000000     0.810710000000     0.409020000000     0.0507316  
H32      H      0.108810000000     0.856720000000     0.421320000000     0.049558   
H33      H      0.918630000000     0.800270000000     0.534890000000     0.0440578  
H34      H      0.072260000000     0.829120000000     0.524620000000     0.0423596  
H35      H      0.071840000000     0.858480000000     0.464980000000     0.0416393  
H36      H      0.986820000000     0.794040000000     0.418940000000     0.048121   
H37      H      0.956500000000     0.784750000000     0.474650000000     0.0584467  
H38      H      0.101900000000     0.791210000000     0.474010000000     0.0498757  
H39      H      0.869800000000     0.044910000000     0.455060000000     0.0466799  
H40      H      0.875800000000     0.969180000000     0.561570000000     0.0395422  
H41      H      0.816370000000     0.970880000000     0.473430000000     0.0545609  
H42      H      0.858510000000     0.115220000000     0.559610000000     0.0455757  
H43      H      0.878790000000     0.931720000000     0.524020000000     0.0469185  
H44      H      0.814460000000     0.073140000000     0.472700000000     0.0425403  
H45      H      0.879960000000     0.078150000000     0.545890000000     0.0395856  
H46      H      0.817980000000     0.116570000000     0.451570000000     0.0583696  
H47      H      0.870610000000     0.000760000000     0.455640000000     0.050997   
H48      H      0.866970000000     0.925720000000     0.577810000000     0.0510896  
H49      H      0.825190000000     0.044620000000     0.572050000000     0.05055    
H50      H      0.845370000000     0.963100000000     0.580910000000     0.0437698  
H51      H      0.884000000000     0.121710000000     0.524530000000     0.0502842  
H52      H      0.831300000000     0.932170000000     0.460160000000     0.0412891  
H53      H      0.842530000000     0.080360000000     0.444740000000     0.0458333  
H54      H      0.880580000000     0.083210000000     0.487210000000     0.0431345  
H55      H      0.825740000000     0.000620000000     0.572450000000     0.0465465  
H56      H      0.811560000000     0.965900000000     0.531210000000     0.0598447  
H57      H      0.813050000000     0.111580000000     0.509310000000     0.0481477  
H58      H      0.048020000000     0.189710000000     0.473910000000     0.0463867  
H59      H      0.974230000000     0.248940000000     0.448570000000     0.0405258  
H60      H      0.972060000000     0.184340000000     0.375370000000     0.0500429  
H61      H      0.119630000000     0.243390000000     0.436510000000     0.0452368  
H62      H      0.936690000000     0.234350000000     0.471090000000     0.0504535  
H63      H      0.081580000000     0.185660000000     0.377260000000     0.0398611  
H64      H      0.080090000000     0.241830000000     0.471780000000     0.0404919  
H65      H      0.124950000000     0.176580000000     0.396470000000     0.0500093  
H66      H      0.003320000000     0.190060000000     0.470940000000     0.0517447  
H67      H      0.928100000000     0.253470000000     0.426550000000     0.0527548  
H68      H      0.050730000000     0.240000000000     0.366010000000     0.0500581  
H69      H      0.966280000000     0.249710000000     0.391090000000     0.0507291  
H70      H      0.123450000000     0.233170000000     0.492190000000     0.0526226  
H71      H      0.931630000000     0.183900000000     0.376210000000     0.0436231  
H72      H      0.085800000000     0.178400000000     0.434680000000     0.0436996  
H73      H      0.084930000000     0.211400000000     0.490230000000     0.0446481  
H74      H      0.006100000000     0.240160000000     0.362690000000     0.0478486  
H75      H      0.972910000000     0.212150000000     0.346330000000     0.0582439  
H76      H      0.120560000000     0.205900000000     0.373110000000     0.0447755  
H77      H      0.788290000000     0.775300000000     0.751610000000     0.0474554  
H78      H      0.800410000000     0.761850000000     0.923280000000     0.0423906  
H79      H      0.730590000000     0.784900000000     0.882820000000     0.0518199  
H80      H      0.848870000000     0.841530000000     0.714530000000     0.0464877  
H81      H      0.777150000000     0.731370000000     0.953800000000     0.0549008  
H82      H      0.772720000000     0.833700000000     0.732090000000     0.0416215  
H83      H      0.843010000000     0.805350000000     0.757520000000     0.0411088  
H84      H      0.785360000000     0.844620000000     0.655350000000     0.0537789  
H85      H      0.770360000000     0.754970000000     0.815720000000     0.0553589  
H86      H      0.778990000000     0.751740000000     0.999130000000     0.0541192  
H87      H      0.805250000000     0.836690000000     0.832660000000     0.0507638  
H88      H      0.785220000000     0.785440000000     0.953130000000     0.0509348  
H89      H      0.856320000000     0.816020000000     0.680830000000     0.0528293  
H90      H      0.712730000000     0.765480000000     0.937780000000     0.045607   
H91      H      0.783320000000     0.808380000000     0.700230000000     0.0443792  
H92      H      0.824540000000     0.791730000000     0.715210000000     0.0448762  
H93      H      0.787540000000     0.816310000000     0.896800000000     0.0485208  
H94      H      0.747440000000     0.803430000000     0.919700000000     0.0588021  
H95      H      0.801600000000     0.860560000000     0.697530000000     0.0475873  
H96      H      0.785310000000     0.776070000000     0.313020000000     0.0481625  
H97      H      0.738000000000     0.698580000000     0.259420000000     0.0415808  
H98      H      0.710020000000     0.765030000000     0.215050000000     0.0536232  
H99      H      0.777470000000     0.771260000000     0.480050000000     0.0473427  
H100     H      0.738660000000     0.692130000000     0.183780000000     0.0514312  
H101     H      0.748160000000     0.811750000000     0.374900000000     0.0430496  
H102     H      0.783640000000     0.747530000000     0.414010000000     0.0422106  
H103     H      0.773730000000     0.835540000000     0.427590000000     0.0582211  
H104     H      0.769130000000     0.756630000000     0.246520000000     0.0542035  
H105     H      0.710020000000     0.679260000000     0.198580000000     0.0540348  
H106     H      0.721840000000     0.753570000000     0.385900000000     0.0513904  
H107     H      0.705720000000     0.703990000000     0.261670000000     0.0515612  
H108     H      0.809420000000     0.770640000000     0.467300000000     0.0564926  
H109     H      0.695940000000     0.748620000000     0.153630000000     0.0484979  
H110     H      0.780430000000     0.808710000000     0.365160000000     0.046003   
H111     H      0.801280000000     0.770980000000     0.388180000000     0.0466395  
H112     H      0.705780000000     0.733960000000     0.319650000000     0.0487809  
H113     H      0.691020000000     0.746540000000     0.248460000000     0.0591482  
H114     H      0.753850000000     0.814280000000     0.453830000000     0.049038   
H115     H      0.793890000000     0.234860000000     0.713620000000     0.0453921  
H116     H      0.791330000000     0.310580000000     0.821780000000     0.0396522  
H117     H      0.725400000000     0.290450000000     0.760440000000     0.0539293  
H118     H      0.848920000000     0.261510000000     0.587460000000     0.0482279  
H119     H      0.763520000000     0.306210000000     0.881780000000     0.0466221  
H120     H      0.771850000000     0.251900000000     0.613030000000     0.0406392  
H121     H      0.842730000000     0.260460000000     0.665660000000     0.0396419  
H122     H      0.788720000000     0.224740000000     0.553880000000     0.0516122  
H123     H      0.773380000000     0.251500000000     0.778940000000     0.05045    
H124     H      0.768220000000     0.337640000000     0.873140000000     0.0509389  
H125     H      0.795470000000     0.305320000000     0.654850000000     0.050545   
H126     H      0.772690000000     0.332820000000     0.794930000000     0.0438601  
H127     H      0.859360000000     0.232810000000     0.606320000000     0.0497589  
H128     H      0.712870000000     0.293690000000     0.834070000000     0.0405474  
H129     H      0.788290000000     0.226210000000     0.633550000000     0.0420076  
H130     H      0.828860000000     0.231130000000     0.663920000000     0.0411398  
H131     H      0.774960000000     0.321940000000     0.719750000000     0.0464441  
H132     H      0.736120000000     0.320860000000     0.757320000000     0.0597145  
H133     H      0.797520000000     0.255650000000     0.549510000000     0.0485616  
H134     H      0.777140000000     0.283680000000     0.145470000000     0.0462983  
H135     H      0.788850000000     0.275930000000     0.312190000000     0.0404432  
H136     H      0.784950000000     0.208080000000     0.250180000000     0.0548207  
H137     H      0.694550000000     0.325200000000     0.139070000000     0.0468197  
H138     H      0.825370000000     0.256380000000     0.334690000000     0.0511953  
H139     H      0.725190000000     0.257930000000     0.106450000000     0.0408538  
H140     H      0.731550000000     0.321780000000     0.181970000000     0.0404563  
H141     H      0.710400000000     0.281760000000     0.041610000000     0.0509138  
H142     H      0.803040000000     0.264070000000     0.200700000000     0.0525025  
H143     H      0.804900000000     0.256490000000     0.380600000000     0.0524733  
H144     H      0.713440000000     0.265800000000     0.221870000000     0.0506804  
H145     H      0.769660000000     0.252610000000     0.334390000000     0.0445165  
H146     H      0.716600000000     0.346170000000     0.118300000000     0.0528549  
H147     H      0.820180000000     0.202930000000     0.292320000000     0.0446928  
H148     H      0.746350000000     0.280780000000     0.088790000000     0.0432857  
H149     H      0.750050000000     0.318380000000     0.133170000000     0.0437892  
H150     H      0.739240000000     0.246370000000     0.277170000000     0.0469442  
H151     H      0.765970000000     0.214870000000     0.296700000000     0.0594653  
H152     H      0.690380000000     0.282780000000     0.088450000000     0.0462181  
H153     H      0.703020000000     0.504370000000     0.994950000000     0.048529   
H154     H      0.762020000000     0.576720000000     0.026880000000     0.041132   
H155     H      0.715630000000     0.585950000000     0.917140000000     0.050521   
H156     H      0.761760000000     0.435210000000     0.967440000000     0.0456572  
H157     H      0.743060000000     0.612220000000     0.047190000000     0.05151    
H158     H      0.714830000000     0.480110000000     0.893730000000     0.0421522  
H159     H      0.754830000000     0.470700000000     0.011960000000     0.0406571  
H160     H      0.702860000000     0.436700000000     0.894510000000     0.0566521  
H161     H      0.703360000000     0.548220000000     0.004140000000     0.0528362  
H162     H      0.769670000000     0.623400000000     0.020300000000     0.0542094  
H163     H      0.770530000000     0.508320000000     0.922610000000     0.0505446  
H164     H      0.774120000000     0.588590000000     0.976260000000     0.0512478  
H165     H      0.743190000000     0.427140000000     0.013930000000     0.052388   
H166     H      0.714230000000     0.625410000000     0.927050000000     0.0431169  
H167     H      0.698840000000     0.471370000000     0.943180000000     0.0481522  
H168     H      0.722340000000     0.465880000000     0.012660000000     0.0464246  
H169     H      0.770990000000     0.552100000000     0.932070000000     0.048177   
H170     H      0.747720000000     0.586490000000     0.908410000000     0.058385   
H171     H      0.735000000000     0.441550000000     0.888340000000     0.0469247  
H172     H      0.254640000000     0.735150000000     0.790330000000     0.0456116  
H173     H      0.254570000000     0.803140000000     0.673830000000     0.0430595  
H174     H      0.232390000000     0.736020000000     0.622590000000     0.0546622  
H175     H      0.344540000000     0.731590000000     0.831050000000     0.0507689  
H176     H      0.215960000000     0.810480000000     0.639250000000     0.0508167  
H177     H      0.292100000000     0.688490000000     0.763550000000     0.0402844  
H178     H      0.311410000000     0.757670000000     0.810460000000     0.041697   
H179     H      0.308430000000     0.669880000000     0.833060000000     0.0498967  
H180     H      0.228840000000     0.754520000000     0.734570000000     0.0509154  
H181     H      0.239580000000     0.823770000000     0.606660000000     0.0619714  
H182     H      0.315480000000     0.737110000000     0.700470000000     0.0518751  
H183     H      0.267890000000     0.791930000000     0.623500000000     0.0486457  
H184     H      0.327920000000     0.739410000000     0.879950000000     0.0543614  
H185     H      0.201340000000     0.762120000000     0.597760000000     0.0396144  
H186     H      0.278180000000     0.699870000000     0.813230000000     0.0422777  
H187     H      0.289430000000     0.740000000000     0.840500000000     0.0427418  
H188     H      0.289830000000     0.756430000000     0.644840000000     0.0488648  
H189     H      0.256250000000     0.752690000000     0.595980000000     0.0621532  
H190     H      0.331130000000     0.683600000000     0.798720000000     0.0474492  
H191     H      0.277780000000     0.769610000000     0.146200000000     0.0463507  
H192     H      0.206450000000     0.775000000000     0.265130000000     0.0403543  
H193     H      0.278100000000     0.787520000000     0.310320000000     0.0556392  
H194     H      0.278420000000     0.682600000000     0.095840000000     0.0465708  
H195     H      0.205160000000     0.812850000000     0.303620000000     0.046556   
H196     H      0.319930000000     0.727970000000     0.181990000000     0.0416189  
H197     H      0.253610000000     0.716980000000     0.113590000000     0.0397364  
H198     H      0.343340000000     0.712010000000     0.117340000000     0.0535108  
H199     H      0.259440000000     0.795630000000     0.202680000000     0.0510126  
H200     H      0.189480000000     0.790560000000     0.335330000000     0.0535292  
H201     H      0.266590000000     0.708010000000     0.229820000000     0.0510172  
H202     H      0.217500000000     0.759330000000     0.313130000000     0.0468342  
H203     H      0.276990000000     0.701340000000     0.047830000000     0.0495207  
H204     H      0.255780000000     0.820510000000     0.339100000000     0.0394065  
H205     H      0.314250000000     0.744000000000     0.131400000000     0.0446236  
H206     H      0.275790000000     0.737750000000     0.091910000000     0.0424934  
H207     H      0.248500000000     0.733900000000     0.286310000000     0.0481715  
H208     H      0.259280000000     0.765590000000     0.337340000000     0.0627705  
H209     H      0.324500000000     0.690150000000     0.144310000000     0.0473774  
H210     H      0.551180000000     0.655930000000     0.971260000000     0.045719   
H211     H      0.473990000000     0.682720000000     0.059470000000     0.0413498  
H212     H      0.472210000000     0.701820000000     0.924810000000     0.0504437  
H213     H      0.614720000000     0.693690000000     0.072190000000     0.0587143  
H214     H      0.437630000000     0.665450000000     0.034360000000     0.0485859  
H215     H      0.584170000000     0.704960000000     0.939810000000     0.0415366  
H216     H      0.577320000000     0.672640000000     0.065410000000     0.0422765  
H217     H      0.629520000000     0.694810000000     0.940430000000     0.0518046  
H218     H      0.506470000000     0.655800000000     0.965630000000     0.0509775  
H219     H      0.428030000000     0.692470000000     0.060950000000     0.0535745  
H220     H      0.548740000000     0.727060000000     0.027300000000     0.0541903  
H221     H      0.465240000000     0.712820000000     0.044670000000     0.0537913  
H222     H      0.622760000000     0.662920000000     0.063510000000     0.0529521  
H223     H      0.431820000000     0.703700000000     0.924550000000     0.0421741  
H224     H      0.591430000000     0.673690000000     0.947620000000     0.0414481  
H225     H      0.587550000000     0.655400000000     0.018670000000     0.0410141  
H226     H      0.504270000000     0.727090000000     0.021350000000     0.0499137  
H227     H      0.473960000000     0.725710000000     0.963630000000     0.0585139  
H228     H      0.619890000000     0.718540000000     0.976190000000     0.0544061  
H229     H      0.276080000000     0.274060000000     0.774520000000     0.045974   
H230     H      0.270610000000     0.194370000000     0.684690000000     0.0403932  
H231     H      0.202760000000     0.228780000000     0.702850000000     0.0500579  
H232     H      0.316820000000     0.244140000000     0.914250000000     0.0462491  
H233     H      0.256890000000     0.199450000000     0.612400000000     0.0483628  
H234     H      0.247310000000     0.268120000000     0.874900000000     0.040888   
H235     H      0.315390000000     0.239320000000     0.834900000000     0.040252   
H236     H      0.268150000000     0.294660000000     0.929790000000     0.0535213  
H237     H      0.257850000000     0.257700000000     0.706970000000     0.0510505  
H238     H      0.249080000000     0.169010000000     0.624520000000     0.0518434  
H239     H      0.259170000000     0.208300000000     0.843050000000     0.0503971  
H240     H      0.244730000000     0.176740000000     0.701420000000     0.0524741  
H241     H      0.337020000000     0.265580000000     0.889290000000     0.0522507  
H242     H      0.187360000000     0.212030000000     0.642540000000     0.0427528  
H243     H      0.269490000000     0.287900000000     0.850180000000     0.0440765  
H244     H      0.309650000000     0.270920000000     0.826590000000     0.0436209  
H245     H      0.240910000000     0.191970000000     0.775700000000     0.0484056  
H246     H      0.206760000000     0.200150000000     0.727950000000     0.057673   
H247     H      0.271780000000     0.263140000000     0.940710000000     0.0462803  
H248     H      0.257180000000     0.251860000000     0.268150000000     0.0458317  
H249     H      0.309430000000     0.326710000000     0.218800000000     0.0420059  
H250     H      0.333470000000     0.259620000000     0.170020000000     0.0501187  
H251     H      0.263580000000     0.255750000000     0.435210000000     0.0455556  
H252     H      0.309040000000     0.334410000000     0.143620000000     0.055272   
H253     H      0.292050000000     0.213770000000     0.330350000000     0.0402413  
H254     H      0.259370000000     0.279560000000     0.368970000000     0.0400036  
H255     H      0.264920000000     0.191210000000     0.382330000000     0.0512932  
H256     H      0.274920000000     0.270780000000     0.202390000000     0.0523823  
H257     H      0.338330000000     0.345510000000     0.158910000000     0.0559511  
H258     H      0.321600000000     0.269730000000     0.342280000000     0.0502064  
H259     H      0.341330000000     0.319440000000     0.220360000000     0.0514914  
H260     H      0.231860000000     0.257530000000     0.421280000000     0.0499961  
H261     H      0.348630000000     0.276340000000     0.109570000000     0.0428441  
H262     H      0.260050000000     0.218400000000     0.320000000000     0.0430142  
H263     H      0.240920000000     0.256950000000     0.342580000000     0.0426873  
H264     H      0.339310000000     0.288670000000     0.276690000000     0.0481704  
H265     H      0.353480000000     0.276350000000     0.204520000000     0.0580799  
H266     H      0.285690000000     0.211380000000     0.409090000000     0.0458941  
H267     H      0.494440000000     0.329740000000     0.000690000000     0.047806   
H268     H      0.570670000000     0.342440000000     0.899650000000     0.0418102  
H269     H      0.569430000000     0.385890000000     0.013770000000     0.0527836  
H270     H      0.425210000000     0.355370000000     0.899730000000     0.0456474  
H271     H      0.608190000000     0.332330000000     0.932120000000     0.0515663  
H272     H      0.462420000000     0.382050000000     0.013210000000     0.0411589  
H273     H      0.463840000000     0.334840000000     0.903550000000     0.0404013  
H274     H      0.418300000000     0.372380000000     0.025990000000     0.0537741  
H275     H      0.539180000000     0.330440000000     0.002360000000     0.0519945  
H276     H      0.615480000000     0.353210000000     0.889490000000     0.0586601  
H277     H      0.494500000000     0.390960000000     0.913760000000     0.0498968  
H278     H      0.577730000000     0.373980000000     0.896620000000     0.0455589  
H279     H      0.419670000000     0.324840000000     0.915870000000     0.0520459  
H280     H      0.608710000000     0.372270000000     0.021450000000     0.0415833  
H281     H      0.456540000000     0.350480000000     0.021370000000     0.0466491  
H282     H      0.457380000000     0.323050000000     0.957670000000     0.0450232  
H283     H      0.539110000000     0.391710000000     0.915370000000     0.0466473  
H284     H      0.574190000000     0.398740000000     0.960380000000     0.0586157  
H285     H      0.424290000000     0.388050000000     0.975470000000     0.0449334  
H286     H      0.304110000000     0.532110000000     0.919840000000     0.0453251  
H287     H      0.331140000000     0.444420000000     0.884950000000     0.0398326  
H288     H      0.285050000000     0.450620000000     0.996760000000     0.0572445  
H289     H      0.381210000000     0.576820000000     0.964170000000     0.0455115  
H290     H      0.298980000000     0.413860000000     0.882720000000     0.0438047  
H291     H      0.316780000000     0.549990000000     0.024820000000     0.0404316  
H292     H      0.364850000000     0.546480000000     0.915490000000     0.0394407  
H293     H      0.320780000000     0.594830000000     0.026530000000     0.0504217  
H294     H      0.289830000000     0.490870000000     0.907000000000     0.0497942  
H295     H      0.328330000000     0.400060000000     0.887080000000     0.0511387  
H296     H      0.361050000000     0.505120000000     0.004020000000     0.0502765  
H297     H      0.342550000000     0.432610000000     0.936320000000     0.0461442  
H298     H      0.369100000000     0.591450000000     0.916240000000     0.0501652  
H299     H      0.272540000000     0.418380000000     0.946970000000     0.0339769  
H300     H      0.308250000000     0.564300000000     0.973780000000     0.0428783  
H301     H      0.336290000000     0.562190000000     0.909930000000     0.0425441  
H302     H      0.346910000000     0.463930000000     0.991000000000     0.0479339  
H303     H      0.314310000000     0.436480000000     0.004870000000     0.0647111  
H304     H      0.348480000000     0.579080000000     0.038720000000     0.0458352  
N1       N      0.207850000000     0.906890000000     0.494820000000    -0.152628   
N2       N      0.204550000000     0.955970000000     0.490480000000    -0.106715   
N3       N      0.205490000000     0.058470000000     0.491140000000    -0.112012   
N4       N      0.198510000000     0.108260000000     0.485110000000    -0.151343   
N5       N      0.219950000000     0.911940000000     0.571780000000    -0.0313467  
N6       N      0.909830000000     0.821620000000     0.478770000000    -0.152383   
N7       N      0.958950000000     0.822980000000     0.471990000000    -0.106393   
N8       N      0.062510000000     0.821370000000     0.457860000000    -0.112262   
N9       N      0.113160000000     0.827260000000     0.466400000000    -0.152339   
N10      N      0.912370000000     0.777820000000     0.480430000000    -0.0307826  
N11      N      0.841690000000     0.921440000000     0.524420000000    -0.153891   
N12      N      0.848490000000     0.971390000000     0.512160000000    -0.109197   
N13      N      0.845760000000     0.073880000000     0.513980000000    -0.112526   
N14      N      0.848690000000     0.123210000000     0.493950000000    -0.151689   
N15      N      0.799040000000     0.926280000000     0.497720000000    -0.031151   
N16      N      0.925760000000     0.216070000000     0.412880000000    -0.152307   
N17      N      0.975050000000     0.214890000000     0.416300000000    -0.106383   
N18      N      0.078950000000     0.215500000000     0.420930000000    -0.112641   
N19      N      0.128180000000     0.206490000000     0.441320000000    -0.1529     
N20      N      0.928740000000     0.213110000000     0.332720000000    -0.0306465  
N21      N      0.744520000000     0.750540000000     0.967420000000    -0.151455   
N22      N      0.765840000000     0.771930000000     0.897300000000    -0.10533    
N23      N      0.807740000000     0.820680000000     0.750350000000    -0.112401   
N24      N      0.822820000000     0.834260000000     0.665130000000    -0.152218   
N25      N      0.726010000000     0.789160000000     0.985970000000    -0.0307411  
N26      N      0.707810000000     0.712650000000     0.164840000000    -0.151276   
N27      N      0.727060000000     0.733380000000     0.237820000000    -0.105633   
N28      N      0.763100000000     0.778030000000     0.393960000000    -0.112346   
N29      N      0.790920000000     0.804200000000     0.455430000000    -0.150807   
N30      N      0.668380000000     0.729380000000     0.186190000000    -0.0301189  
N31      N      0.732970000000     0.324130000000     0.854960000000    -0.153998   
N32      N      0.759220000000     0.296710000000     0.792130000000    -0.109322   
N33      N      0.806870000000     0.259850000000     0.639290000000    -0.112298   
N34      N      0.826060000000     0.232620000000     0.569360000000    -0.152099   
N35      N      0.697800000000     0.324570000000     0.802900000000    -0.0313544  
N36      N      0.811100000000     0.222100000000     0.350390000000    -0.152659   
N37      N      0.789170000000     0.243320000000     0.275630000000    -0.108554   
N38      N      0.727440000000     0.288260000000     0.149000000000    -0.112553   
N39      N      0.709440000000     0.315210000000     0.077500000000    -0.152755   
N40      N      0.793480000000     0.182770000000     0.327310000000    -0.031256   
N41      N      0.736860000000     0.627520000000     0.984000000000    -0.151873   
N42      N      0.736390000000     0.579200000000     0.974350000000    -0.106197   
N43      N      0.737100000000     0.477470000000     0.950900000000    -0.112401   
N44      N      0.725060000000     0.428230000000     0.951000000000    -0.151439   
N45      N      0.750550000000     0.630650000000     0.907590000000    -0.030602   
N46      N      0.222270000000     0.792450000000     0.578870000000    -0.152321   
N47      N      0.241680000000     0.768780000000     0.654070000000    -0.109434   
N48      N      0.303020000000     0.723870000000     0.781360000000    -0.112219   
N49      N      0.323700000000     0.703000000000     0.857080000000    -0.152023   
N50      N      0.221550000000     0.752610000000     0.540470000000    -0.0322232  
N51      N      0.223990000000     0.802570000000     0.361430000000    -0.154014   
N52      N      0.243140000000     0.782890000000     0.281960000000    -0.109529   
N53      N      0.285360000000     0.721040000000     0.152970000000    -0.112353   
N54      N      0.311280000000     0.700840000000     0.081990000000    -0.152552   
N55      N      0.265780000000     0.798970000000     0.394050000000    -0.0321794  
N56      N      0.425830000000     0.692890000000     0.990950000000    -0.153154   
N57      N      0.475730000000     0.690340000000     0.990670000000    -0.106621   
N58      N      0.579250000000     0.692230000000     0.005320000000    -0.111099   
N59      N      0.629810000000     0.686630000000     0.009380000000    -0.150252   
N60      N      0.430270000000     0.734290000000     0.965160000000    -0.0309503  
N61      N      0.219140000000     0.193220000000     0.621810000000    -0.153104   
N62      N      0.238080000000     0.214450000000     0.695480000000    -0.106695   
N63      N      0.279980000000     0.250920000000     0.854000000000    -0.112718   
N64      N      0.303770000000     0.279810000000     0.916910000000    -0.152335   
N65      N      0.186950000000     0.177170000000     0.669160000000    -0.0310008  
N66      N      0.338780000000     0.312650000000     0.123130000000    -0.151465   
N67      N      0.318300000000     0.291740000000     0.194940000000    -0.106172   
N68      N      0.278660000000     0.248150000000     0.349400000000    -0.112618   
N69      N      0.249170000000     0.223280000000     0.410310000000    -0.153014   
N70      N      0.377170000000     0.293420000000     0.143270000000    -0.0307889  
N71      N      0.619390000000     0.366480000000     0.955250000000    -0.152205   
N72      N      0.568830000000     0.360860000000     0.961030000000    -0.108467   
N73      N      0.464930000000     0.360740000000     0.955110000000    -0.112503   
N74      N      0.414850000000     0.351580000000     0.966440000000    -0.151914   
N75      N      0.615410000000     0.406210000000     0.991520000000    -0.0314097  
N76      N      0.305980000000     0.399530000000     0.946300000000    -0.156447   
N77      N      0.308010000000     0.450450000000     0.940230000000    -0.110769   
N78      N      0.342290000000     0.545550000000     0.972540000000    -0.112589   
N79      N      0.348520000000     0.595760000000     0.976200000000    -0.153464   
N80      N      0.276310000000     0.403760000000     0.009820000000    -0.0318831  
O1       O      0.347980000000     0.306530000000     0.049820000000    -0.24095    
O2       O      0.304050000000     0.313120000000     0.961880000000    -0.248848   
O3       O      0.379020000000     0.355010000000     0.005390000000    -0.247951   
O4       O      0.332510000000     0.367820000000     0.937010000000    -0.256055   
O5       O      0.311690000000     0.368550000000     0.996430000000    -0.216015   
O6       O      0.379560000000     0.331170000000     0.949650000000    -0.243632   
O7       O      0.330100000000     0.339470000000     0.067540000000    -0.237211   
O8       O      0.338520000000     0.298880000000     0.940940000000    -0.244242   
O9       O      0.313740000000     0.684360000000     0.012420000000    -0.249953   
O10      O      0.341290000000     0.705780000000     0.925690000000    -0.242431   
O11      O      0.337060000000     0.633070000000     0.001390000000    -0.2534     
O12      O      0.390320000000     0.691010000000     0.950550000000    -0.236818   
O13      O      0.391170000000     0.673020000000     0.013100000000    -0.247835   
O14      O      0.362580000000     0.631550000000     0.947770000000    -0.251447   
O15      O      0.347110000000     0.690910000000     0.047240000000    -0.245466   
O16      O      0.332030000000     0.670580000000     0.901730000000    -0.2506     
O17      O      0.698430000000     0.333530000000     0.895050000000    -0.218971   
O18      O      0.705230000000     0.351410000000     0.041710000000    -0.244998   
O19      O      0.655820000000     0.350880000000     0.930460000000    -0.235586   
O20      O      0.700690000000     0.397090000000     0.927710000000    -0.242653   
O21      O      0.721870000000     0.391740000000     0.986340000000    -0.24381    
O22      O      0.656580000000     0.372310000000     0.989090000000    -0.230225   
O23      O      0.732810000000     0.345310000000     0.920450000000    -0.252874   
O24      O      0.701280000000     0.319220000000     0.003440000000    -0.253324   
O25      O      0.743290000000     0.714410000000     0.004420000000    -0.24767    
O26      O      0.698350000000     0.719870000000     0.092150000000    -0.233598   
O27      O      0.713090000000     0.661270000000     0.974630000000    -0.240683   
O28      O      0.668270000000     0.697200000000     0.986160000000    -0.239944   
O29      O      0.664800000000     0.679760000000     0.049070000000    -0.245475   
O30      O      0.730740000000     0.656470000000     0.037170000000    -0.243323   
O31      O      0.709270000000     0.731220000000     0.988330000000    -0.232939   
O32      O      0.717220000000     0.687090000000     0.107450000000    -0.241693   
O33      O      0.868540000000     0.159680000000     0.494120000000    -0.252316   
O34      O      0.892250000000     0.221020000000     0.457640000000    -0.24729    
O35      O      0.821850000000     0.212310000000     0.503790000000    -0.246929   
O36      O      0.832910000000     0.192350000000     0.386170000000    -0.217413   
O37      O      0.832600000000     0.227510000000     0.414870000000    -0.248378   
O38      O      0.858040000000     0.216960000000     0.529310000000    -0.24548    
O39      O      0.835350000000     0.156870000000     0.457210000000    -0.238486   
O40      O      0.891630000000     0.191940000000     0.411120000000    -0.238638   
O41      O      0.878840000000     0.820310000000     0.529960000000    -0.23448    
O42      O      0.828510000000     0.884020000000     0.501540000000    -0.220211   
O43      O      0.849960000000     0.832740000000     0.607280000000    -0.244067   
O44      O      0.823890000000     0.807450000000     0.501780000000    -0.244881   
O45      O      0.806690000000     0.840030000000     0.480420000000    -0.235195   
O46      O      0.813770000000     0.845340000000     0.593960000000    -0.248387   
O47      O      0.876080000000     0.846220000000     0.477730000000    -0.251936   
O48      O      0.856370000000     0.885350000000     0.550870000000    -0.252904   
O49      O      0.149820000000     0.843600000000     0.444960000000    -0.251171   
O50      O      0.207580000000     0.872350000000     0.453000000000    -0.24557    
O51      O      0.190290000000     0.812790000000     0.403000000000    -0.249128   
O52      O      0.198670000000     0.795960000000     0.515980000000    -0.219235   
O53      O      0.213500000000     0.828110000000     0.543540000000    -0.237055   
O54      O      0.225110000000     0.823440000000     0.427410000000    -0.218924   
O55      O      0.150030000000     0.818240000000     0.498350000000    -0.246124   
O56      O      0.189030000000     0.871620000000     0.515450000000    -0.237079   
O57      O      0.207670000000     0.145200000000     0.455170000000    -0.243051   
O58      O      0.160890000000     0.209860000000     0.488330000000    -0.244686   
O59      O      0.232480000000     0.188190000000     0.436740000000    -0.246328   
O60      O      0.227300000000     0.185260000000     0.548840000000    -0.254052   
O61      O      0.190750000000     0.195410000000     0.565950000000    -0.233594   
O62      O      0.216340000000     0.221450000000     0.457530000000    -0.253722   
O63      O      0.186670000000     0.144420000000     0.515080000000    -0.244368   
O64      O      0.161940000000     0.181990000000     0.439400000000    -0.254099   
O65      O      0.216820000000     0.889070000000     0.583260000000    -0.0835243  
O66      O      0.242450000000     0.914070000000     0.555790000000    -0.101195   
O67      O      0.889470000000     0.774920000000     0.493850000000    -0.0859351  
O68      O      0.912100000000     0.778920000000     0.436590000000    -0.105293   
O69      O      0.794450000000     0.909590000000     0.467380000000    -0.0827093  
O70      O      0.794270000000     0.917090000000     0.537330000000    -0.0896104  
O71      O      0.905280000000     0.207900000000     0.327200000000    -0.0861568  
O72      O      0.930770000000     0.236950000000     0.333110000000    -0.105288   
O73      O      0.710440000000     0.779740000000     0.014850000000    -0.0827823  
O74      O      0.746590000000     0.793880000000     0.007490000000    -0.103868   
O75      O      0.657970000000     0.725130000000     0.147370000000    -0.0858222  
O76      O      0.665740000000     0.709660000000     0.210590000000    -0.104362   
O77      O      0.677650000000     0.318490000000     0.824660000000    -0.0833894  
O78      O      0.701050000000     0.348200000000     0.806630000000    -0.0888997  
O79      O      0.810830000000     0.166080000000     0.329090000000    -0.0815758  
O80      O      0.783110000000     0.184500000000     0.366910000000    -0.0886327  
O81      O      0.746350000000     0.654160000000     0.905110000000    -0.0870285  
O82      O      0.772980000000     0.627770000000     0.923340000000    -0.104488   
O83      O      0.199810000000     0.750250000000     0.521540000000    -0.0833541  
O84      O      0.236460000000     0.763840000000     0.512600000000    -0.0770727  
O85      O      0.270650000000     0.819770000000     0.413900000000    -0.0804829  
O86      O      0.254510000000     0.784530000000     0.422520000000    -0.0765457  
O87      O      0.407240000000     0.737160000000     0.952550000000    -0.0847598  
O88      O      0.431480000000     0.739830000000     0.007800000000    -0.102489   
O89      O      0.172180000000     0.170670000000     0.636530000000    -0.0855119  
O90      O      0.202260000000     0.159020000000     0.676260000000    -0.105099   
O91      O      0.387850000000     0.297840000000     0.104700000000    -0.088099   
O92      O      0.380870000000     0.312490000000     0.168950000000    -0.104766   
O93      O      0.632390000000     0.408110000000     0.022600000000    -0.0870212  
O94      O      0.625180000000     0.413030000000     0.953300000000    -0.0922382  
O95      O      0.266600000000     0.382480000000     0.000120000000    -0.0850906  
O96      O      0.292340000000     0.401040000000     0.042350000000    -0.0866132  


