data_structure

_audit_creation_method RASPA-1.0
_audit_creation_date 2023-6-5
_audit_author_name 'Poobodin Mano'

_cell_length_a    54.14
_cell_length_b    54.2367
_cell_length_c    32.1172
_cell_angle_alpha 90.0277
_cell_angle_beta  89.9176
_cell_angle_gamma 90
_cell_volume      94308

_symmetry_cell_setting          triclinic
_symmetry_space_group_name_Hall 'P 1'
_symmetry_space_group_name_H-M  'P 1'
_symmetry_Int_Tables_number     1

_symmetry_equiv_pos_as_xyz 'x,y,z'

loop_
_atom_site_label
_atom_site_type_symbol
_atom_site_fract_x
_atom_site_fract_y
_atom_site_fract_z
_atom_site_charge
C1       C      0.389530000000     0.340320000000     0.959590000000     0.33883    
C2       C      0.315350000000     0.326620000000     0.035130000000     0.337963   
C3       C      0.333500000000     0.401850000000     0.958270000000     0.338188   
C4       C      0.309160000000     0.323890000000     0.896960000000     0.33933    
C5       C      0.364190000000     0.656560000000     0.957260000000     0.339676   
C6       C      0.332540000000     0.738320000000     0.003160000000     0.338867   
C7       C      0.414760000000     0.720650000000     0.960010000000     0.338588   
C8       C      0.345610000000     0.722920000000     0.865170000000     0.336429   
C9       C      0.646420000000     0.345920000000     0.973240000000     0.338535   
C10      C      0.731140000000     0.325320000000     0.927500000000     0.337994   
C11      C      0.701400000000     0.404550000000     0.973730000000     0.338273   
C12      C      0.716760000000     0.336100000000     0.064520000000     0.337037   
C13      C      0.741320000000     0.734040000000     0.883020000000     0.337933   
C14      C      0.737970000000     0.654700000000     0.947310000000     0.338829   
C15      C      0.740500000000     0.733800000000     0.019080000000     0.338883   
C16      C      0.668640000000     0.698090000000     0.950950000000     0.338149   
C17      C      0.836190000000     0.233530000000     0.566890000000     0.337088   
C18      C      0.841420000000     0.168800000000     0.457030000000     0.337478   
C19      C      0.819400000000     0.249540000000     0.429920000000     0.339246   
C20      C      0.902960000000     0.222220000000     0.482240000000     0.33926    
C21      C      0.909630000000     0.853940000000     0.466410000000     0.336954   
C22      C      0.831500000000     0.837970000000     0.518600000000     0.339124   
C23      C      0.853850000000     0.914880000000     0.441680000000     0.33813    
C24      C      0.834490000000     0.838820000000     0.381110000000     0.337966   
C25      C      0.227920000000     0.830590000000     0.363830000000     0.33672    
C26      C      0.162230000000     0.829940000000     0.472600000000     0.337901   
C27      C      0.244530000000     0.813660000000     0.501310000000     0.338625   
C28      C      0.209900000000     0.895090000000     0.453010000000     0.339495   
C29      C      0.231860000000     0.230840000000     0.407440000000     0.339503   
C30      C      0.227180000000     0.147300000000     0.438300000000     0.338233   
C31      C      0.213950000000     0.213370000000     0.543420000000     0.337529   
C32      C      0.154770000000     0.186420000000     0.450690000000     0.339967   
C33      C      0.204660000000     0.959270000000     0.416440000000    -0.0285669  
C34      C      0.243550000000     0.085690000000     0.466190000000    -0.0288081  
C35      C      0.228590000000     0.111360000000     0.390640000000    -0.0105915  
C36      C      0.253500000000     0.111470000000     0.456400000000    -0.0106783  
C37      C      0.245610000000     0.028280000000     0.418730000000    -0.0528738  
C38      C      0.203290000000     0.016280000000     0.464480000000    -0.0526927  
C39      C      0.230790000000     0.047180000000     0.434900000000     0.0625498  
C40      C      0.219180000000     0.085600000000     0.401940000000    -0.0289556  
C41      C      0.218080000000     0.997390000000     0.448260000000     0.0624768  
C42      C      0.229230000000     0.958330000000     0.479730000000    -0.0284368  
C43      C      0.239380000000     0.003570000000     0.425260000000    -0.0554     
C44      C      0.218660000000     0.933240000000     0.492270000000    -0.0108659  
C45      C      0.193010000000     0.934250000000     0.426290000000    -0.0106756  
C46      C      0.209520000000     0.040980000000     0.457940000000    -0.0554583  
C47      C      0.096860000000     0.816770000000     0.456130000000    -0.028404   
C48      C      0.974830000000     0.834540000000     0.447410000000    -0.027995   
C49      C      0.944830000000     0.854970000000     0.514710000000    -0.0109861  
C50      C      0.946850000000     0.831150000000     0.446010000000    -0.0112844  
C51      C      0.025630000000     0.851040000000     0.477040000000    -0.0551453  
C52      C      0.045120000000     0.809200000000     0.515890000000    -0.0531794  
C53      C      0.009600000000     0.833340000000     0.494360000000     0.0626062  
C54      C      0.973020000000     0.856980000000     0.512460000000    -0.0282156  
C55      C      0.061140000000     0.826490000000     0.498030000000     0.0625817  
C56      C      0.101670000000     0.840670000000     0.519870000000    -0.0284427  
C57      C      0.051210000000     0.847600000000     0.478740000000    -0.0551264  
C58      C      0.128540000000     0.832320000000     0.524590000000    -0.0109914  
C59      C      0.123450000000     0.807420000000     0.458610000000    -0.0110165  
C60      C      0.019570000000     0.812590000000     0.514050000000    -0.0530877  
C61      C      0.861680000000     0.979080000000     0.400920000000    -0.0282456  
C62      C      0.853550000000     0.108860000000     0.406560000000    -0.028433   
C63      C      0.819440000000     0.129520000000     0.467730000000    -0.0111121  
C64      C      0.846410000000     0.136140000000     0.404050000000    -0.0109957  
C65      C      0.857160000000     0.056610000000     0.441370000000    -0.0552056  
C66      C      0.820730000000     0.028350000000     0.402260000000    -0.0530724  
C67      C      0.836870000000     0.068350000000     0.422400000000     0.0625569  
C68      C      0.827880000000     0.102650000000     0.467850000000    -0.0282599  
C69      C      0.840580000000     0.016560000000     0.421770000000     0.0626245  
C70      C      0.839460000000     0.980620000000     0.466260000000    -0.0279192  
C71      C      0.859070000000     0.030900000000     0.440850000000    -0.0552375  
C72      C      0.834110000000     0.953000000000     0.465570000000    -0.0111671  
C73      C      0.857680000000     0.951250000000     0.396460000000    -0.0108635  
C74      C      0.818900000000     0.054020000000     0.402540000000    -0.0531657  
C75      C      0.965560000000     0.223700000000     0.437940000000    -0.028463   
C76      C      0.091330000000     0.181800000000     0.486880000000    -0.0288121  
C77      C      0.116880000000     0.189090000000     0.407890000000    -0.0106866  
C78      C      0.115940000000     0.168830000000     0.478510000000    -0.0105879  
C79      C      0.048890000000     0.218040000000     0.472880000000    -0.0554596  
C80      C      0.009080000000     0.188300000000     0.449250000000    -0.0555049  
C81      C      0.053350000000     0.194930000000     0.454290000000     0.0624978  
C82      C      0.092220000000     0.201410000000     0.418480000000    -0.0287495  
C83      C      0.004630000000     0.211360000000     0.468010000000     0.0624824  
C84      C      0.966760000000     0.204430000000     0.506350000000    -0.0284368  
C85      C      0.024700000000     0.226110000000     0.479620000000    -0.0527914  
C86      C      0.942520000000     0.216750000000     0.519220000000    -0.0108583  
C87      C      0.941200000000     0.236740000000     0.448040000000    -0.0109555  
C88      C      0.033270000000     0.180230000000     0.442500000000    -0.0529685  
C89      C      0.791040000000     0.830860000000     0.610210000000    -0.0285363  
C90      C      0.778060000000     0.748470000000     0.789510000000    -0.0282726  
C91      C      0.740230000000     0.771970000000     0.840670000000    -0.0109253  
C92      C      0.776210000000     0.742100000000     0.835700000000    -0.0108561  
C93      C      0.793320000000     0.800460000000     0.735470000000    -0.0528313  
C94      C      0.770270000000     0.779580000000     0.666010000000    -0.0528436  
C95      C      0.775290000000     0.782260000000     0.741120000000     0.062778   
C96      C      0.743770000000     0.777270000000     0.794250000000    -0.0284258  
C97      C      0.788410000000     0.797680000000     0.660370000000     0.0627128  
C98      C      0.820730000000     0.797210000000     0.608460000000    -0.0284326  
C99      C      0.799940000000     0.808120000000     0.695480000000    -0.0555192  
C100     C      0.825570000000     0.800960000000     0.562010000000    -0.0107381  
C101     C      0.794700000000     0.836120000000     0.563840000000    -0.0108926  
C102     C      0.763760000000     0.771820000000     0.706010000000    -0.0555329  
C103     C      0.827410000000     0.803160000000     0.283360000000    -0.0283011  
C104     C      0.741730000000     0.772460000000     0.114010000000    -0.0284429  
C105     C      0.776610000000     0.746550000000     0.060260000000    -0.0108866  
C106     C      0.735380000000     0.768440000000     0.068090000000    -0.0108616  
C107     C      0.789040000000     0.803880000000     0.165080000000    -0.0528527  
C108     C      0.778100000000     0.775210000000     0.235060000000    -0.0527566  
C109     C      0.775650000000     0.781980000000     0.160340000000     0.0627423  
C110     C      0.781080000000     0.751370000000     0.106480000000    -0.0283052  
C111     C      0.791680000000     0.797000000000     0.239750000000     0.0626816  
C112     C      0.790370000000     0.827440000000     0.294950000000    -0.0284514  
C113     C      0.797040000000     0.811400000000     0.204410000000    -0.0554649  
C114     C      0.796560000000     0.831200000000     0.340950000000    -0.0108579  
C115     C      0.835380000000     0.805700000000     0.328770000000    -0.0110146  
C116     C      0.770120000000     0.767670000000     0.195720000000    -0.0555675  
C117     C      0.774760000000     0.316320000000     0.840500000000    -0.0283085  
C118     C      0.823190000000     0.273310000000     0.658840000000    -0.028227   
C119     C      0.820280000000     0.221350000000     0.635660000000    -0.0111788  
C120     C      0.839860000000     0.263560000000     0.624030000000    -0.0111808  
C121     C      0.818680000000     0.259410000000     0.764530000000    -0.0530372  
C122     C      0.772760000000     0.283020000000     0.762850000000    -0.0550729  
C123     C      0.806500000000     0.262550000000     0.726480000000     0.0625489  
C124     C      0.804470000000     0.233230000000     0.669690000000    -0.0281223  
C125     C      0.785140000000     0.279870000000     0.801040000000     0.0625739  
C126     C      0.751070000000     0.278720000000     0.850370000000    -0.0284794  
C127     C      0.808100000000     0.267990000000     0.801480000000    -0.0531638  
C128     C      0.743930000000     0.286110000000     0.894830000000    -0.0110014  
C129     C      0.768910000000     0.325260000000     0.884570000000    -0.0109058  
C130     C      0.783300000000     0.274300000000     0.725880000000    -0.0550223  
C131     C      0.771620000000     0.262670000000     0.352290000000    -0.028357   
C132     C      0.723970000000     0.300760000000     0.163990000000    -0.0281701  
C133     C      0.743730000000     0.344920000000     0.123950000000    -0.0110053  
C134     C      0.709190000000     0.312750000000     0.128800000000    -0.0111371  
C135     C      0.741290000000     0.322060000000     0.262190000000    -0.0529542  
C136     C      0.775920000000     0.283800000000     0.263790000000    -0.0552172  
C137     C      0.748460000000     0.310790000000     0.224860000000     0.0625337  
C138     C      0.756630000000     0.331030000000     0.159120000000    -0.0281139  
C139     C      0.768730000000     0.295300000000     0.301250000000     0.0626454  
C140     C      0.805550000000     0.291690000000     0.343740000000    -0.0284834  
C141     C      0.751340000000     0.314390000000     0.300050000000    -0.0531692  
C142     C      0.814200000000     0.287600000000     0.388570000000    -0.0109792  
C143     C      0.778840000000     0.257510000000     0.397490000000    -0.0109233  
C144     C      0.765910000000     0.291540000000     0.225860000000    -0.0549825  
C145     C      0.711980000000     0.465120000000     0.924020000000    -0.0284832  
C146     C      0.740140000000     0.592550000000     0.985390000000    -0.0286894  
C147     C      0.747730000000     0.617370000000     0.905970000000    -0.0106626  
C148     C      0.753330000000     0.617460000000     0.983590000000    -0.0105664  
C149     C      0.708890000000     0.549590000000     0.953160000000    -0.0555119  
C150     C      0.742090000000     0.510100000000     0.950510000000    -0.0554191  
C151     C      0.734360000000     0.554190000000     0.948590000000     0.06273    
C152     C      0.734710000000     0.592430000000     0.909700000000    -0.0288051  
C153     C      0.716630000000     0.505530000000     0.955210000000     0.0626107  
C154     C      0.715400000000     0.469410000000     0.999110000000    -0.0281474  
C155     C      0.700180000000     0.525440000000     0.956380000000    -0.0527915  
C156     C      0.701070000000     0.445560000000     0.006620000000    -0.0109887  
C157     C      0.697630000000     0.440930000000     0.928140000000    -0.0107834  
C158     C      0.750800000000     0.534270000000     0.947170000000    -0.052984   
C159     C      0.261080000000     0.767890000000     0.580840000000    -0.0283791  
C160     C      0.307810000000     0.724990000000     0.767800000000    -0.0283341  
C161     C      0.351870000000     0.748170000000     0.802650000000    -0.0111696  
C162     C      0.321780000000     0.711820000000     0.802760000000    -0.0111322  
C163     C      0.324780000000     0.741460000000     0.666810000000    -0.0529618  
C164     C      0.284770000000     0.774080000000     0.667060000000    -0.0550701  
C165     C      0.314370000000     0.748770000000     0.704790000000     0.0625159  
C166     C      0.336210000000     0.759440000000     0.767990000000    -0.028084   
C167     C      0.295440000000     0.766790000000     0.628950000000     0.0625496  
C168     C      0.289330000000     0.802670000000     0.585160000000    -0.0284132  
C169     C      0.315400000000     0.750380000000     0.629230000000    -0.0531933  
C170     C      0.283690000000     0.810420000000     0.540340000000    -0.0110226  
C171     C      0.254310000000     0.774160000000     0.535820000000    -0.0110417  
C172     C      0.294190000000     0.765170000000     0.704710000000    -0.0550565  
C173     C      0.317980000000     0.780800000000     0.089490000000    -0.0284508  
C174     C      0.268490000000     0.824080000000     0.270770000000    -0.0283208  
C175     C      0.218130000000     0.811930000000     0.295990000000    -0.0111103  
C176     C      0.256150000000     0.839090000000     0.305410000000    -0.0112149  
C177     C      0.254980000000     0.816030000000     0.165830000000    -0.052968   
C178     C      0.285940000000     0.774770000000     0.167930000000    -0.0550437  
C179     C      0.260330000000     0.804870000000     0.204070000000     0.0624107  
C180     C      0.232380000000     0.798190000000     0.261980000000    -0.0282495  
C181     C      0.280550000000     0.786130000000     0.129560000000     0.0624889  
C182     C      0.283930000000     0.752080000000     0.080680000000    -0.0284301  
C183     C      0.264990000000     0.806750000000     0.128910000000    -0.0531539  
C184     C      0.291990000000     0.745830000000     0.036160000000    -0.0110562  
C185     C      0.327430000000     0.775990000000     0.045340000000    -0.0110031  
C186     C      0.275850000000     0.784020000000     0.204890000000    -0.0549848  
C187     C      0.604090000000     0.708260000000     0.920950000000    -0.0285382  
C188     C      0.476740000000     0.710830000000     0.000660000000    -0.0289986  
C189     C      0.453780000000     0.737960000000     0.932620000000    -0.0108856  
C190     C      0.451170000000     0.722420000000     0.006490000000    -0.0108043  
C191     C      0.535380000000     0.733750000000     0.976440000000    -0.0528264  
C192     C      0.547440000000     0.685890000000     0.951100000000    -0.0528461  
C193     C      0.516470000000     0.716970000000     0.967390000000     0.0625377  
C194     C      0.479130000000     0.725730000000     0.929060000000    -0.0284879  
C195     C      0.566350000000     0.702700000000     0.960010000000     0.0625069  
C196     C      0.605810000000     0.696330000000     0.993970000000    -0.0284127  
C197     C      0.560140000000     0.726770000000     0.972750000000    -0.0554249  
C198     C      0.631130000000     0.684270000000     0.988110000000    -0.0108065  
C199     C      0.629300000000     0.696620000000     0.912200000000    -0.0107756  
C200     C      0.522690000000     0.692900000000     0.954620000000    -0.0554877  
C201     C      0.220320000000     0.258360000000     0.629340000000    -0.0283966  
C202     C      0.269070000000     0.313940000000     0.804250000000    -0.0282893  
C203     C      0.297530000000     0.284770000000     0.863620000000    -0.011115   
C204     C      0.274630000000     0.324740000000     0.847250000000    -0.0109819  
C205     C      0.234830000000     0.263450000000     0.772060000000    -0.05311    
C206     C      0.259960000000     0.265960000000     0.696030000000    -0.0550698  
C207     C      0.257390000000     0.275980000000     0.769790000000     0.0625994  
C208     C      0.290840000000     0.276030000000     0.819810000000    -0.0280213  
C209     C      0.237290000000     0.253300000000     0.698540000000     0.0625735  
C210     C      0.241840000000     0.220620000000     0.647710000000    -0.0282464  
C211     C      0.224860000000     0.252220000000     0.736740000000    -0.0531308  
C212     C      0.227400000000     0.205650000000     0.615540000000    -0.0111538  
C213     C      0.204920000000     0.245150000000     0.596240000000    -0.0110854  
C214     C      0.269930000000     0.277250000000     0.731380000000    -0.0550991  
C215     C      0.276030000000     0.319050000000     0.128820000000    -0.0283734  
C216     C      0.273480000000     0.249170000000     0.325150000000    -0.0288575  
C217     C      0.230300000000     0.269650000000     0.366930000000    -0.0105825  
C218     C      0.269800000000     0.245440000000     0.371990000000    -0.0105929  
C219     C      0.259300000000     0.263130000000     0.235920000000    -0.0554107  
C220     C      0.287610000000     0.305100000000     0.218940000000    -0.0554133  
C221     C      0.267440000000     0.278160000000     0.268950000000     0.0625675  
C222     C      0.235070000000     0.272700000000     0.320250000000    -0.0287141  
C223     C      0.279450000000     0.290070000000     0.185940000000     0.0625221  
C224     C      0.312450000000     0.293230000000     0.135400000000    -0.0283026  
C225     C      0.265280000000     0.269120000000     0.194820000000    -0.0526136  
C226     C      0.317450000000     0.294160000000     0.088580000000    -0.0109945  
C227     C      0.279440000000     0.321360000000     0.081640000000    -0.011038   
C228     C      0.281580000000     0.299150000000     0.260060000000    -0.0528824  
C229     C      0.579120000000     0.344750000000     0.998440000000    -0.0278525  
C230     C      0.453000000000     0.332970000000     0.918090000000    -0.0284509  
C231     C      0.428360000000     0.336080000000     0.998770000000    -0.0107508  
C232     C      0.426120000000     0.324530000000     0.922230000000    -0.0110149  
C233     C      0.508360000000     0.313940000000     0.964580000000    -0.0527493  
C234     C      0.527760000000     0.359860000000     0.942330000000    -0.0527935  
C235     C      0.492290000000     0.333230000000     0.954240000000     0.0624846  
C236     C      0.455020000000     0.344170000000     0.991240000000    -0.0283317  
C237     C      0.543800000000     0.340700000000     0.953340000000     0.0625318  
C238     C      0.584750000000     0.329900000000     0.928030000000    -0.0282693  
C239     C      0.533920000000     0.317560000000     0.964230000000    -0.0554771  
C240     C      0.611310000000     0.339570000000     0.925960000000    -0.0109887  
C241     C      0.605160000000     0.355480000000     0.000260000000    -0.011213   
C242     C      0.502210000000     0.356260000000     0.942790000000    -0.0555115  
C243     C      0.348150000000     0.465420000000     0.925700000000    -0.0284175  
C244     C      0.346370000000     0.594710000000     0.995050000000    -0.0284204  
C245     C      0.377980000000     0.616100000000     0.930950000000    -0.0107031  
C246     C      0.358000000000     0.620100000000     0.002110000000    -0.0110069  
C247     C      0.331230000000     0.547770000000     0.949190000000    -0.0553387  
C248     C      0.363660000000     0.510950000000     0.976170000000    -0.0555044  
C249     C      0.354440000000     0.554350000000     0.965570000000     0.0623164  
C250     C      0.365400000000     0.590970000000     0.926760000000    -0.0285203  
C251     C      0.340430000000     0.504380000000     0.959890000000     0.0624208  
C252     C      0.331670000000     0.466120000000     0.996130000000    -0.0283094  
C253     C      0.324340000000     0.522980000000     0.946520000000    -0.0527356  
C254     C      0.319630000000     0.440790000000     0.990590000000    -0.0110391  
C255     C      0.336760000000     0.440110000000     0.917070000000    -0.0110657  
C256     C      0.370500000000     0.535750000000     0.979000000000    -0.0528178  
Cd1      Cd     0.336880000000     0.348660000000     0.961650000000     0.505599   
Cd2      Cd     0.363170000000     0.709570000000     0.947190000000     0.505003   
Cd3      Cd     0.699090000000     0.351780000000     0.983980000000     0.506088   
Cd4      Cd     0.721490000000     0.705180000000     0.950520000000     0.506788   
Cd5      Cd     0.849730000000     0.219020000000     0.483300000000     0.505754   
Cd6      Cd     0.857750000000     0.862170000000     0.451770000000     0.506139   
Cd7      Cd     0.212070000000     0.841960000000     0.447860000000     0.505352   
Cd8      Cd     0.207170000000     0.195010000000     0.459670000000     0.50541    
H1       H      0.197720000000     0.055200000000     0.470750000000     0.0440117  
H2       H      0.191150000000     0.970300000000     0.398150000000     0.0370239  
H3       H      0.234000000000     0.968670000000     0.508570000000     0.0374868  
H4       H      0.244910000000     0.109320000000     0.369850000000     0.0413756  
H5       H      0.174550000000     0.937400000000     0.440570000000     0.0424611  
H6       H      0.257880000000     0.075430000000     0.483960000000     0.037767   
H7       H      0.215640000000     0.075250000000     0.372620000000     0.0373571  
H8       H      0.256790000000     0.121520000000     0.486050000000     0.0494592  
H9       H      0.233430000000     0.922380000000     0.507830000000     0.0488923  
H10      H      0.186850000000     0.011800000000     0.482170000000     0.0470306  
H11      H      0.190150000000     0.924090000000     0.396600000000     0.0474926  
H12      H      0.262010000000     0.032760000000     0.400930000000     0.0468495  
H13      H      0.221430000000     0.956410000000     0.396880000000     0.0408983  
H14      H      0.214000000000     0.121320000000     0.373080000000     0.0478735  
H15      H      0.203620000000     0.936230000000     0.515340000000     0.0433154  
H16      H      0.226840000000     0.087520000000     0.486230000000     0.0430207  
H17      H      0.201400000000     0.087420000000     0.419120000000     0.0424896  
H18      H      0.251090000000     0.989320000000     0.412320000000     0.0433869  
H19      H      0.246510000000     0.955470000000     0.461470000000     0.0411437  
H20      H      0.271550000000     0.109460000000     0.440170000000     0.0418254  
H21      H      0.007460000000     0.798800000000     0.527400000000     0.0477635  
H22      H      0.085480000000     0.802440000000     0.440390000000     0.0375014  
H23      H      0.093860000000     0.844010000000     0.551450000000     0.0371234  
H24      H      0.939880000000     0.840420000000     0.537630000000     0.0451138  
H25      H      0.123350000000     0.788890000000     0.473400000000     0.043169   
H26      H      0.983550000000     0.818740000000     0.430800000000     0.0373822  
H27      H      0.980350000000     0.857980000000     0.544780000000     0.0370468  
H28      H      0.940620000000     0.833310000000     0.413220000000     0.0488458  
H29      H      0.139430000000     0.847650000000     0.538390000000     0.0476989  
H30      H      0.052490000000     0.792830000000     0.530650000000     0.0473899  
H31      H      0.130800000000     0.805290000000     0.426470000000     0.0495586  
H32      H      0.018360000000     0.867210000000     0.461580000000     0.042607   
H33      H      0.096330000000     0.833830000000     0.436860000000     0.0417237  
H34      H      0.937260000000     0.872700000000     0.526590000000     0.046625   
H35      H      0.129110000000     0.816560000000     0.546700000000     0.0426926  
H36      H      0.979910000000     0.851780000000     0.430630000000     0.039657   
H37      H      0.978200000000     0.874330000000     0.496060000000     0.0392063  
H38      H      0.063180000000     0.861160000000     0.464430000000     0.0430061  
H39      H      0.101230000000     0.858370000000     0.502310000000     0.0407353  
H40      H      0.942350000000     0.811990000000     0.455730000000     0.0457038  
H41      H      0.803130000000     0.062800000000     0.388060000000     0.0474396  
H42      H      0.863180000000     0.987210000000     0.369200000000     0.0369826  
H43      H      0.824330000000     0.989960000000     0.483700000000     0.0373497  
H44      H      0.801060000000     0.130600000000     0.452440000000     0.0437539  
H45      H      0.842830000000     0.948010000000     0.373210000000     0.045097   
H46      H      0.857520000000     0.102100000000     0.374510000000     0.0368916  
H47      H      0.812840000000     0.091220000000     0.481540000000     0.0374073  
H48      H      0.862730000000     0.146860000000     0.393300000000     0.0472053  
H49      H      0.835980000000     0.945740000000     0.497810000000     0.0485862  
H50      H      0.806360000000     0.017540000000     0.387540000000     0.0477808  
H51      H      0.874880000000     0.942790000000     0.383950000000     0.0464079  
H52      H      0.871170000000     0.067250000000     0.457290000000     0.0426923  
H53      H      0.879380000000     0.982570000000     0.417560000000     0.0391571  
H54      H      0.817150000000     0.135730000000     0.500520000000     0.0494183  
H55      H      0.814590000000     0.950150000000     0.455940000000     0.0456851  
H56      H      0.870700000000     0.107010000000     0.425410000000     0.0398707  
H57      H      0.844530000000     0.100760000000     0.487930000000     0.0410989  
H58      H      0.874590000000     0.022200000000     0.456140000000     0.0424904  
H59      H      0.857090000000     0.983990000000     0.483200000000     0.0394234  
H60      H      0.831650000000     0.138280000000     0.380280000000     0.0430632  
H61      H      0.036430000000     0.162410000000     0.428220000000     0.0465334  
H62      H      0.976100000000     0.235320000000     0.415560000000     0.0374792  
H63      H      0.978210000000     0.201690000000     0.534740000000     0.037094   
H64      H      0.113080000000     0.172090000000     0.389610000000     0.0420629  
H65      H      0.945350000000     0.255960000000     0.457860000000     0.043635   
H66      H      0.080140000000     0.169970000000     0.508020000000     0.0370714  
H67      H      0.081680000000     0.204060000000     0.389100000000     0.0374725  
H68      H      0.126250000000     0.167200000000     0.508290000000     0.0474503  
H69      H      0.932110000000     0.203900000000     0.539730000000     0.0476663  
H70      H      0.993890000000     0.176530000000     0.440070000000     0.0429992  
H71      H      0.929860000000     0.237670000000     0.419250000000     0.0488658  
H72      H      0.064060000000     0.229740000000     0.482350000000     0.0438317  
H73      H      0.961490000000     0.205710000000     0.422670000000     0.0409111  
H74      H      0.127850000000     0.201750000000     0.387920000000     0.0488601  
H75      H      0.946900000000     0.233520000000     0.537730000000     0.0429366  
H76      H      0.094970000000     0.199620000000     0.502980000000     0.0418337  
H77      H      0.095890000000     0.219880000000     0.432320000000     0.0421396  
H78      H      0.021550000000     0.243850000000     0.494140000000     0.0472711  
H79      H      0.962680000000     0.185990000000     0.492720000000     0.0407     
H80      H      0.112040000000     0.149870000000     0.467070000000     0.0413349  
H81      H      0.749980000000     0.757520000000     0.709500000000     0.0434728  
H82      H      0.771810000000     0.836030000000     0.618870000000     0.037493   
H83      H      0.823610000000     0.777370000000     0.615900000000     0.0371973  
H84      H      0.749290000000     0.786890000000     0.858840000000     0.042959   
H85      H      0.779450000000     0.827210000000     0.546220000000     0.0431716  
H86      H      0.797670000000     0.746270000000     0.779640000000     0.0372709  
H87      H      0.737880000000     0.796580000000     0.788020000000     0.0373682  
H88      H      0.780790000000     0.722250000000     0.839730000000     0.048873   
H89      H      0.845380000000     0.797060000000     0.555570000000     0.0477015  
H90      H      0.761390000000     0.771280000000     0.639270000000     0.0471198  
H91      H      0.793330000000     0.856350000000     0.558710000000     0.0490112  
H92      H      0.802490000000     0.808480000000     0.762190000000     0.0471079  
H93      H      0.803980000000     0.842580000000     0.628470000000     0.0410496  
H94      H      0.720150000000     0.772470000000     0.847960000000     0.0483301  
H95      H      0.814380000000     0.787380000000     0.544230000000     0.042848   
H96      H      0.766600000000     0.735290000000     0.771240000000     0.0413282  
H97      H      0.731670000000     0.764690000000     0.775970000000     0.0407834  
H98      H      0.814170000000     0.821970000000     0.691950000000     0.0434583  
H99      H      0.834300000000     0.808220000000     0.626710000000     0.0410355  
H100     H      0.790260000000     0.753000000000     0.852970000000     0.0431903  
H101     H      0.759920000000     0.750600000000     0.192870000000     0.0434431  
H102     H      0.834650000000     0.785350000000     0.271160000000     0.0373856  
H103     H      0.769920000000     0.827730000000     0.291410000000     0.0372438  
H104     H      0.786720000000     0.760690000000     0.041860000000     0.0430807  
H105     H      0.830330000000     0.788520000000     0.345650000000     0.0438765  
H106     H      0.732680000000     0.789790000000     0.124630000000     0.0372447  
H107     H      0.801360000000     0.752940000000     0.111610000000     0.0373561  
H108     H      0.715210000000     0.764940000000     0.065410000000     0.0479799  
H109     H      0.790900000000     0.850150000000     0.350160000000     0.0476153  
H110     H      0.773920000000     0.763920000000     0.261970000000     0.047202   
H111     H      0.855840000000     0.807480000000     0.329810000000     0.0488753  
H112     H      0.793510000000     0.815000000000     0.138090000000     0.0470564  
H113     H      0.835770000000     0.818370000000     0.264790000000     0.0406595  
H114     H      0.784520000000     0.728240000000     0.052170000000     0.0487436  
H115     H      0.785470000000     0.818000000000     0.359750000000     0.0434785  
H116     H      0.734110000000     0.756900000000     0.132660000000     0.0406501  
H117     H      0.774150000000     0.735400000000     0.124890000000     0.0411108  
H118     H      0.807600000000     0.828270000000     0.207190000000     0.0432004  
H119     H      0.798190000000     0.842990000000     0.276540000000     0.0402607  
H120     H      0.739570000000     0.785660000000     0.050670000000     0.0432718  
H121     H      0.773460000000     0.276850000000     0.696890000000     0.0429066  
H122     H      0.793080000000     0.323900000000     0.831240000000     0.0372468  
H123     H      0.751790000000     0.258240000000     0.848600000000     0.0374487  
H124     H      0.835770000000     0.211230000000     0.650630000000     0.044896   
H125     H      0.784860000000     0.320880000000     0.905040000000     0.0431834  
H126     H      0.832790000000     0.288970000000     0.674360000000     0.0372413  
H127     H      0.799980000000     0.218900000000     0.693330000000     0.0373548  
H128     H      0.841350000000     0.277910000000     0.599430000000     0.0476995  
H129     H      0.724720000000     0.279820000000     0.901010000000     0.0484599  
H130     H      0.755090000000     0.292320000000     0.761620000000     0.0431756  
H131     H      0.766820000000     0.345660000000     0.883910000000     0.0486084  
H132     H      0.836510000000     0.250370000000     0.765460000000     0.0475747  
H133     H      0.760630000000     0.323610000000     0.818540000000     0.0412724  
H134     H      0.808820000000     0.207590000000     0.618770000000     0.0486808  
H135     H      0.756290000000     0.276310000000     0.916930000000     0.0430331  
H136     H      0.805730000000     0.280420000000     0.645020000000     0.0398116  
H137     H      0.786810000000     0.239910000000     0.655930000000     0.040247   
H138     H      0.817880000000     0.265550000000     0.830570000000     0.047446   
H139     H      0.736560000000     0.285300000000     0.828500000000     0.0408685  
H140     H      0.858690000000     0.260560000000     0.636860000000     0.0442836  
H141     H      0.771820000000     0.282610000000     0.197390000000     0.0426489  
H142     H      0.751270000000     0.260260000000     0.349280000000     0.0372539  
H143     H      0.810390000000     0.310860000000     0.334420000000     0.0375328  
H144     H      0.735080000000     0.361850000000     0.137010000000     0.0460012  
H145     H      0.767100000000     0.269040000000     0.418220000000     0.0426793  
H146     H      0.710780000000     0.291460000000     0.185480000000     0.0372896  
H147     H      0.768080000000     0.344410000000     0.176960000000     0.0372654  
H148     H      0.701180000000     0.297950000000     0.108970000000     0.0473642  
H149     H      0.834690000000     0.288770000000     0.389430000000     0.0490744  
H150     H      0.789270000000     0.268960000000     0.263900000000     0.0432208  
H151     H      0.774830000000     0.237850000000     0.404600000000     0.0479979  
H152     H      0.727950000000     0.336940000000     0.261860000000     0.0478517  
H153     H      0.780850000000     0.249000000000     0.331570000000     0.0411739  
H154     H      0.757920000000     0.350930000000     0.101020000000     0.0474981  
H155     H      0.806760000000     0.302740000000     0.408310000000     0.0429864  
H156     H      0.736460000000     0.286450000000     0.150700000000     0.0391741  
H157     H      0.769190000000     0.316830000000     0.145670000000     0.0393715  
H158     H      0.745610000000     0.323360000000     0.328610000000     0.0474569  
H159     H      0.815560000000     0.278720000000     0.322780000000     0.0413522  
H160     H      0.693510000000     0.323170000000     0.142640000000     0.045719   
H161     H      0.770430000000     0.537540000000     0.943830000000     0.047007   
H162     H      0.706000000000     0.474490000000     0.894900000000     0.0372098  
H163     H      0.712060000000     0.481990000000     0.025940000000     0.037126   
H164     H      0.767560000000     0.614020000000     0.898870000000     0.0422572  
H165     H      0.677610000000     0.444890000000     0.924320000000     0.0427482  
H166     H      0.747720000000     0.581890000000     0.012080000000     0.0374449  
H167     H      0.738320000000     0.581670000000     0.880810000000     0.0375012  
H168     H      0.749230000000     0.627930000000     0.012560000000     0.048671   
H169     H      0.708960000000     0.436190000000     0.034370000000     0.0486788  
H170     H      0.755190000000     0.495030000000     0.949810000000     0.0433802  
H171     H      0.703280000000     0.428390000000     0.902420000000     0.0480639  
H172     H      0.695800000000     0.564640000000     0.954600000000     0.0436133  
H173     H      0.732060000000     0.460940000000     0.921320000000     0.0407613  
H174     H      0.739630000000     0.627770000000     0.879480000000     0.0485181  
H175     H      0.681550000000     0.450300000000     0.013900000000     0.0430413  
H176     H      0.720090000000     0.595720000000     0.991090000000     0.0422567  
H177     H      0.714450000000     0.595610000000     0.912260000000     0.0418727  
H178     H      0.680580000000     0.522180000000     0.960220000000     0.0469823  
H179     H      0.735530000000     0.465230000000     0.997760000000     0.0411356  
H180     H      0.773580000000     0.614100000000     0.982390000000     0.042295   
H181     H      0.285890000000     0.771170000000     0.733660000000     0.0427866  
H182     H      0.259350000000     0.747590000000     0.585060000000     0.0372933  
H183     H      0.308620000000     0.808230000000     0.592590000000     0.0374747  
H184     H      0.368780000000     0.740010000000     0.788580000000     0.0455413  
H185     H      0.265450000000     0.762320000000     0.514660000000     0.0427592  
H186     H      0.298750000000     0.710800000000     0.747970000000     0.0372374  
H187     H      0.348380000000     0.771190000000     0.748300000000     0.0373242  
H188     H      0.308120000000     0.703180000000     0.824140000000     0.047263   
H189     H      0.284170000000     0.830880000000     0.538440000000     0.0490013  
H190     H      0.269310000000     0.786730000000     0.667690000000     0.0432067  
H191     H      0.234520000000     0.769600000000     0.530750000000     0.0480957  
H192     H      0.340350000000     0.728920000000     0.666410000000     0.0477013  
H193     H      0.247780000000     0.777080000000     0.602300000000     0.0411505  
H194     H      0.357910000000     0.763200000000     0.823910000000     0.0481541  
H195     H      0.298520000000     0.803150000000     0.519710000000     0.0429082  
H196     H      0.293110000000     0.736830000000     0.781590000000     0.0394434  
H197     H      0.321700000000     0.771460000000     0.781950000000     0.0396379  
H198     H      0.323770000000     0.744610000000     0.600180000000     0.047444   
H199     H      0.276670000000     0.812630000000     0.606740000000     0.0413503  
H200     H      0.332980000000     0.696710000000     0.788890000000     0.0450304  
H201     H      0.280210000000     0.775030000000     0.234040000000     0.0428887  
H202     H      0.322970000000     0.800010000000     0.098310000000     0.0373569  
H203     H      0.263530000000     0.749940000000     0.082840000000     0.0374283  
H204     H      0.205130000000     0.825050000000     0.280940000000     0.044726   
H205     H      0.320750000000     0.791020000000     0.024710000000     0.0431372  
H206     H      0.281970000000     0.836190000000     0.254390000000     0.0371738  
H207     H      0.218860000000     0.790860000000     0.239020000000     0.0374112  
H208     H      0.270250000000     0.843540000000     0.329410000000     0.0475117  
H209     H      0.288350000000     0.725950000000     0.030310000000     0.0484083  
H210     H      0.298020000000     0.758890000000     0.169290000000     0.0431707  
H211     H      0.347960000000     0.776760000000     0.045640000000     0.0484934  
H212     H      0.243050000000     0.832050000000     0.164720000000     0.047519   
H213     H      0.327310000000     0.767980000000     0.111520000000     0.0412404  
H214     H      0.206880000000     0.798340000000     0.313730000000     0.0486297  
H215     H      0.280460000000     0.756630000000     0.014110000000     0.043013   
H216     H      0.278860000000     0.808440000000     0.284850000000     0.0398533  
H217     H      0.242350000000     0.782270000000     0.276030000000     0.04018    
H218     H      0.260750000000     0.815710000000     0.099660000000     0.0474367  
H219     H      0.292610000000     0.738770000000     0.102630000000     0.0409154  
H220     H      0.249560000000     0.856820000000     0.292070000000     0.0440556  
H221     H      0.508450000000     0.679640000000     0.947060000000     0.0433314  
H222     H      0.592840000000     0.707230000000     0.892010000000     0.0372824  
H223     H      0.595830000000     0.686400000000     0.019230000000     0.0370892  
H224     H      0.456480000000     0.757720000000     0.940680000000     0.0430081  
H225     H      0.626350000000     0.677930000000     0.898830000000     0.0422663  
H226     H      0.486340000000     0.710750000000     0.031280000000     0.0373561  
H227     H      0.490520000000     0.736560000000     0.906720000000     0.0374223  
H228     H      0.440070000000     0.710520000000     0.027580000000     0.047892   
H229     H      0.642130000000     0.687020000000     0.016940000000     0.0481499  
H230     H      0.551940000000     0.667360000000     0.941060000000     0.0467201  
H231     H      0.639040000000     0.707910000000     0.888410000000     0.0485686  
H232     H      0.530880000000     0.752360000000     0.986020000000     0.0471271  
H233     H      0.606670000000     0.728070000000     0.929070000000     0.0417164  
H234     H      0.444500000000     0.737130000000     0.901800000000     0.0491139  
H235     H      0.628440000000     0.664100000000     0.983840000000     0.0417996  
H236     H      0.474440000000     0.691390000000     0.990240000000     0.0411505  
H237     H      0.476840000000     0.706750000000     0.916350000000     0.0417562  
H238     H      0.574390000000     0.740170000000     0.979530000000     0.0436399  
H239     H      0.608440000000     0.715820000000     0.003890000000     0.0413105  
H240     H      0.453470000000     0.740650000000     0.021870000000     0.0427524  
H241     H      0.287400000000     0.286830000000     0.728840000000     0.0429789  
H242     H      0.209310000000     0.274050000000     0.641820000000     0.0371937  
H243     H      0.246910000000     0.208170000000     0.673900000000     0.0373431  
H244     H      0.284770000000     0.275920000000     0.886270000000     0.0438177  
H245     H      0.186420000000     0.240980000000     0.609570000000     0.0433806  
H246     H      0.251320000000     0.321870000000     0.793050000000     0.0373171  
H247     H      0.289420000000     0.255550000000     0.820210000000     0.0372499  
H248     H      0.278500000000     0.344770000000     0.843760000000     0.0479238  
H249     H      0.239920000000     0.191520000000     0.601910000000     0.0489181  
H250     H      0.269950000000     0.267020000000     0.666870000000     0.0430163  
H251     H      0.202180000000     0.257860000000     0.569490000000     0.047754   
H252     H      0.225000000000     0.262320000000     0.801390000000     0.0475854  
H253     H      0.237330000000     0.265960000000     0.614600000000     0.0403678  
H254     H      0.316540000000     0.278340000000     0.870970000000     0.0482162  
H255     H      0.212170000000     0.195770000000     0.631730000000     0.0438264  
H256     H      0.283910000000     0.319470000000     0.782070000000     0.0402235  
H257     H      0.305900000000     0.281230000000     0.797820000000     0.0402183  
H258     H      0.207430000000     0.242520000000     0.739130000000     0.0474316  
H259     H      0.259210000000     0.227580000000     0.633260000000     0.040724   
H260     H      0.257880000000     0.322870000000     0.867070000000     0.0442792  
H261     H      0.288020000000     0.310830000000     0.285140000000     0.0468926  
H262     H      0.255950000000     0.320430000000     0.135990000000     0.0373813  
H263     H      0.319590000000     0.275400000000     0.147610000000     0.0372977  
H264     H      0.237450000000     0.286260000000     0.383280000000     0.0418608  
H265     H      0.266690000000     0.308220000000     0.066030000000     0.043224   
H266     H      0.293670000000     0.249710000000     0.318580000000     0.0374911  
H267     H      0.226970000000     0.290570000000     0.310050000000     0.0376263  
H268     H      0.277600000000     0.227250000000     0.381020000000     0.048059   
H269     H      0.337770000000     0.294600000000     0.083540000000     0.0485494  
H270     H      0.298720000000     0.321300000000     0.212920000000     0.0433138  
H271     H      0.274050000000     0.340290000000     0.071980000000     0.0483622  
H272     H      0.248440000000     0.246760000000     0.241900000000     0.0440814  
H273     H      0.285640000000     0.334660000000     0.144450000000     0.0406767  
H274     H      0.210040000000     0.268710000000     0.372420000000     0.0490654  
H275     H      0.310300000000     0.276940000000     0.074180000000     0.0435417  
H276     H      0.265410000000     0.233160000000     0.308240000000     0.0423975  
H277     H      0.225530000000     0.257570000000     0.303220000000     0.0426     
H278     H      0.258990000000     0.257330000000     0.169770000000     0.0473338  
H279     H      0.322680000000     0.308450000000     0.151020000000     0.040896   
H280     H      0.280300000000     0.259980000000     0.388790000000     0.0417218  
H281     H      0.490220000000     0.371530000000     0.935010000000     0.0429793  
H282     H      0.567040000000     0.355840000000     0.019390000000     0.0368936  
H283     H      0.576940000000     0.329960000000     0.895990000000     0.037299   
H284     H      0.428490000000     0.317310000000     0.012660000000     0.0441128  
H285     H      0.604020000000     0.375780000000     0.995790000000     0.0442278  
H286     H      0.461980000000     0.321970000000     0.893010000000     0.037402   
H287     H      0.465540000000     0.341610000000     0.020690000000     0.0370337  
H288     H      0.416070000000     0.329490000000     0.893230000000     0.0480583  
H289     H      0.622940000000     0.325810000000     0.909330000000     0.0475073  
H290     H      0.535100000000     0.377800000000     0.934190000000     0.0470525  
H291     H      0.612780000000     0.352170000000     0.031910000000     0.0479133  
H292     H      0.500990000000     0.296180000000     0.973710000000     0.0471939  
H293     H      0.579390000000     0.325440000000     0.010260000000     0.0399459  
H294     H      0.419850000000     0.348800000000     0.021870000000     0.0478702  
H295     H      0.611520000000     0.356800000000     0.907190000000     0.0445964  
H296     H      0.453330000000     0.352730000000     0.908680000000     0.0401293  
H297     H      0.455320000000     0.364140000000     0.983180000000     0.0402759  
H298     H      0.545910000000     0.302520000000     0.973230000000     0.0431733  
H299     H      0.584930000000     0.310510000000     0.939420000000     0.039667   
H300     H      0.425800000000     0.304100000000     0.925090000000     0.0443281  
H301     H      0.388460000000     0.540520000000     0.991440000000     0.0467219  
H302     H      0.349200000000     0.475730000000     0.895790000000     0.0371756  
H303     H      0.320410000000     0.476950000000     0.018660000000     0.0373263  
H304     H      0.397420000000     0.613170000000     0.940940000000     0.0423481  
H305     H      0.319200000000     0.442780000000     0.899710000000     0.0439691  
H306     H      0.343990000000     0.585580000000     0.025830000000     0.0372998  
H307     H      0.377140000000     0.579050000000     0.906610000000     0.0370186  
H308     H      0.344690000000     0.631780000000     0.019640000000     0.0483833  
H309     H      0.320690000000     0.430650000000     0.020620000000     0.0482723  
H310     H      0.376500000000     0.496940000000     0.986470000000     0.0430254  
H311     H      0.349540000000     0.429500000000     0.896690000000     0.0479801  
H312     H      0.318530000000     0.561760000000     0.938320000000     0.0434867  
H313     H      0.367300000000     0.462930000000     0.937650000000     0.0403921  
H314     H      0.378420000000     0.625060000000     0.899810000000     0.0477976  
H315     H      0.299760000000     0.443490000000     0.983150000000     0.0439848  
H316     H      0.327770000000     0.597140000000     0.980870000000     0.0410284  
H317     H      0.347190000000     0.593380000000     0.911190000000     0.0411606  
H318     H      0.306470000000     0.518200000000     0.933740000000     0.047264   
H319     H      0.350460000000     0.463650000000     0.009530000000     0.0403532  
H320     H      0.374720000000     0.617810000000     0.021810000000     0.0430509  
N1       N      0.208340000000     0.920190000000     0.455900000000    -0.153909   
N2       N      0.210840000000     0.972130000000     0.455400000000    -0.113395   
N3       N      0.237730000000     0.072490000000     0.427250000000    -0.113565   
N4       N      0.236170000000     0.124440000000     0.428720000000    -0.153966   
N5       N      0.138630000000     0.824150000000     0.484180000000    -0.153621   
N6       N      0.087320000000     0.821480000000     0.498320000000    -0.113484   
N7       N      0.983100000000     0.835300000000     0.490920000000    -0.113028   
N8       N      0.933850000000     0.848440000000     0.474070000000    -0.153077   
N9       N      0.850320000000     0.939620000000     0.436190000000    -0.153495   
N10      N      0.840730000000     0.989980000000     0.423420000000    -0.113017   
N11      N      0.833140000000     0.094650000000     0.425000000000    -0.113397   
N12      N      0.836950000000     0.145160000000     0.444410000000    -0.153722   
N13      N      0.928140000000     0.224140000000     0.482300000000    -0.153846   
N14      N      0.979940000000     0.220160000000     0.476330000000    -0.113365   
N15      N      0.078060000000     0.185770000000     0.447430000000    -0.113552   
N16      N      0.130020000000     0.182200000000     0.446340000000    -0.154335   
N17      N      0.818420000000     0.826020000000     0.548890000000    -0.154143   
N18      N      0.795250000000     0.804510000000     0.618510000000    -0.113372   
N19      N      0.769900000000     0.774010000000     0.782830000000    -0.113405   
N20      N      0.751530000000     0.748200000000     0.852330000000    -0.153788   
N21      N      0.823000000000     0.826720000000     0.349230000000    -0.153874   
N22      N      0.800310000000     0.803650000000     0.280710000000    -0.113261   
N23      N      0.768670000000     0.774330000000     0.118980000000    -0.113361   
N24      N      0.750090000000     0.748150000000     0.050060000000    -0.154031   
N25      N      0.746730000000     0.312910000000     0.901320000000    -0.153633   
N26      N      0.775330000000     0.289230000000     0.839760000000    -0.113321   
N27      N      0.818220000000     0.253560000000     0.689040000000    -0.113175   
N28      N      0.830720000000     0.239950000000     0.607030000000    -0.153294   
N29      N      0.804970000000     0.263880000000     0.404810000000    -0.154135   
N30      N      0.778660000000     0.288000000000     0.341060000000    -0.113439   
N31      N      0.738030000000     0.319740000000     0.186390000000    -0.112898   
N32      N      0.724290000000     0.329980000000     0.103800000000    -0.153179   
N33      N      0.701500000000     0.429600000000     0.969390000000    -0.153835   
N34      N      0.706930000000     0.480940000000     0.960260000000    -0.113403   
N35      N      0.744110000000     0.578910000000     0.946220000000    -0.113587   
N36      N      0.745860000000     0.630800000000     0.945720000000    -0.154082   
N37      N      0.259810000000     0.800230000000     0.526470000000    -0.153919   
N38      N      0.286550000000     0.775800000000     0.589420000000    -0.113402   
N39      N      0.325180000000     0.739690000000     0.742870000000    -0.113019   
N40      N      0.338510000000     0.728620000000     0.825470000000    -0.153148   
N41      N      0.318170000000     0.752240000000     0.029160000000    -0.153872   
N42      N      0.291020000000     0.777570000000     0.090780000000    -0.113301   
N43      N      0.249660000000     0.815180000000     0.241450000000    -0.113142   
N44      N      0.234800000000     0.825960000000     0.323590000000    -0.153384   
N45      N      0.643700000000     0.694200000000     0.950930000000    -0.154012   
N46      N      0.591670000000     0.694910000000     0.954930000000    -0.113508   
N47      N      0.491150000000     0.725170000000     0.970140000000    -0.113407   
N48      N      0.439150000000     0.726140000000     0.965820000000    -0.15375    
N49      N      0.216600000000     0.221760000000     0.583310000000    -0.153594   
N50      N      0.226500000000     0.241080000000     0.663020000000    -0.113339   
N51      N      0.267190000000     0.286970000000     0.807220000000    -0.113167   
N52      N      0.295290000000     0.311810000000     0.867840000000    -0.153779   
N53      N      0.304990000000     0.315420000000     0.069040000000    -0.153587   
N54      N      0.285760000000     0.295200000000     0.143120000000    -0.113261   
N55      N      0.261840000000     0.272440000000     0.311850000000    -0.113497   
N56      N      0.243430000000     0.247760000000     0.382640000000    -0.154326   
N57      N      0.621400000000     0.345110000000     0.967660000000    -0.153588   
N58      N      0.569940000000     0.345780000000     0.955470000000    -0.113105   
N59      N      0.466010000000     0.329230000000     0.957780000000    -0.113243   
N60      N      0.414270000000     0.335270000000     0.959490000000    -0.153683   
N61      N      0.331290000000     0.426950000000     0.956220000000    -0.153533   
N62      N      0.332800000000     0.478970000000     0.955830000000    -0.113273   
N63      N      0.362460000000     0.579710000000     0.968110000000    -0.113349   
N64      N      0.365410000000     0.631550000000     0.962330000000    -0.153875   
O1       O      0.336410000000     0.320470000000     0.021510000000    -0.250694   
O2       O      0.305880000000     0.346470000000     0.905260000000    -0.253066   
O3       O      0.378490000000     0.347710000000     0.992050000000    -0.25204    
O4       O      0.327310000000     0.389820000000     0.990410000000    -0.250652   
O5       O      0.341410000000     0.389250000000     0.927850000000    -0.252833   
O6       O      0.376210000000     0.337230000000     0.927610000000    -0.250947   
O7       O      0.304240000000     0.343320000000     0.014940000000    -0.250507   
O8       O      0.325520000000     0.312960000000     0.918120000000    -0.253093   
O9       O      0.324580000000     0.718910000000     0.985900000000    -0.25227    
O10      O      0.361920000000     0.735260000000     0.884150000000    -0.248292   
O11      O      0.355300000000     0.670600000000     0.985010000000    -0.2512     
O12      O      0.401490000000     0.711710000000     0.988780000000    -0.252375   
O13      O      0.404090000000     0.724390000000     0.925550000000    -0.247505   
O14      O      0.372340000000     0.667070000000     0.924860000000    -0.254657   
O15      O      0.354520000000     0.744320000000     0.994440000000    -0.254313   
O16      O      0.336930000000     0.704500000000     0.884540000000    -0.25162    
O17      O      0.712960000000     0.314880000000     0.945040000000    -0.252268   
O18      O      0.727230000000     0.353010000000     0.043860000000    -0.25043    
O19      O      0.661460000000     0.340370000000     0.944480000000    -0.251664   
O20      O      0.699360000000     0.390210000000     0.942790000000    -0.251506   
O21      O      0.702760000000     0.394350000000     0.009090000000    -0.249856   
O22      O      0.655880000000     0.353320000000     0.007000000000    -0.253595   
O23      O      0.734300000000     0.347870000000     0.936130000000    -0.2525     
O24      O      0.698320000000     0.325910000000     0.047370000000    -0.250896   
O25      O      0.731560000000     0.666320000000     0.914890000000    -0.251725   
O26      O      0.680150000000     0.704810000000     0.918520000000    -0.251594   
O27      O      0.751740000000     0.714640000000     0.896020000000    -0.251119   
O28      O      0.753290000000     0.717560000000     0.000760000000    -0.252349   
O29      O      0.718560000000     0.736450000000     0.006240000000    -0.252911   
O30      O      0.721260000000     0.739890000000     0.900810000000    -0.251035   
O31      O      0.736660000000     0.666500000000     0.981280000000    -0.250695   
O32      O      0.681630000000     0.694840000000     0.983230000000    -0.253401   
O33      O      0.854660000000     0.183450000000     0.435920000000    -0.254894   
O34      O      0.889960000000     0.230260000000     0.452430000000    -0.248175   
O35      O      0.831510000000     0.212260000000     0.552700000000    -0.246453   
O36      O      0.811390000000     0.229890000000     0.446240000000    -0.257105   
O37      O      0.841490000000     0.255200000000     0.438490000000    -0.249795   
O38      O      0.846880000000     0.248250000000     0.542120000000    -0.254031   
O39      O      0.832220000000     0.177450000000     0.490220000000    -0.246373   
O40      O      0.891260000000     0.212620000000     0.512290000000    -0.256096   
O41      O      0.850590000000     0.828640000000     0.502190000000    -0.255936   
O42      O      0.823580000000     0.855120000000     0.402480000000    -0.25531    
O43      O      0.898920000000     0.846840000000     0.433490000000    -0.24686    
O44      O      0.846190000000     0.903830000000     0.473900000000    -0.249408   
O45      O      0.864030000000     0.901530000000     0.414180000000    -0.255518   
O46      O      0.896390000000     0.865550000000     0.492440000000    -0.2538     
O47      O      0.824890000000     0.858730000000     0.504620000000    -0.248623   
O48      O      0.856380000000     0.833800000000     0.391850000000    -0.24797    
O49      O      0.171460000000     0.822420000000     0.438640000000    -0.245825   
O50      O      0.199690000000     0.883240000000     0.423740000000    -0.255932   
O51      O      0.208200000000     0.821940000000     0.379170000000    -0.247179   
O52      O      0.224740000000     0.804800000000     0.486770000000    -0.256455   
O53      O      0.249440000000     0.835620000000     0.490870000000    -0.249825   
O54      O      0.240520000000     0.844320000000     0.387590000000    -0.254404   
O55      O      0.176190000000     0.842980000000     0.495310000000    -0.254279   
O56      O      0.221270000000     0.882300000000     0.479840000000    -0.248417   
O57      O      0.211980000000     0.158380000000     0.414950000000    -0.254764   
O58      O      0.166480000000     0.179910000000     0.482950000000    -0.256819   
O59      O      0.243130000000     0.212420000000     0.422360000000    -0.256365   
O60      O      0.221910000000     0.192460000000     0.532170000000    -0.24727    
O61      O      0.202950000000     0.225840000000     0.515790000000    -0.25459    
O62      O      0.209240000000     0.232670000000     0.416820000000    -0.249783   
O63      O      0.233380000000     0.158500000000     0.471270000000    -0.246125   
O64      O      0.167350000000     0.196950000000     0.422600000000    -0.249178   


