data_structure

_audit_creation_method RASPA-1.0
_audit_creation_date 2023-5-25
_audit_author_name 'Poobodin Mano'

_cell_length_a    49.4341
_cell_length_b    41.7148
_cell_length_c    43.1671
_cell_angle_alpha 90
_cell_angle_beta  90
_cell_angle_gamma 90
_cell_volume      89016.3

_symmetry_cell_setting          triclinic
_symmetry_space_group_name_Hall 'P 1'
_symmetry_space_group_name_H-M  'P 1'
_symmetry_Int_Tables_number     1

_symmetry_equiv_pos_as_xyz 'x,y,z'

loop_
_atom_site_label
_atom_site_type_symbol
_atom_site_fract_x
_atom_site_fract_y
_atom_site_fract_z
_atom_site_charge
Br1      Br     0.888690000000     0.015300000000     0.409550000000    -0.210569   
Br2      Br     0.796890000000     0.806390000000     0.490810000000    -0.220621   
Br3      Br     0.292300000000     0.282590000000     0.467440000000    -0.221775   
Br4      Br     0.344720000000     0.508820000000     0.480250000000    -0.221449   
Br5      Br     0.802820000000     0.009220000000     0.307450000000    -0.209099   
Br6      Br     0.538610000000     0.317930000000     0.183230000000    -0.222627   
Br7      Br     0.314230000000     0.046120000000     0.832580000000    -0.222709   
Br8      Br     0.474620000000     0.646670000000     0.724790000000    -0.222645   
Br9      Br     0.480160000000     0.180930000000     0.076960000000    -0.219677   
Br10     Br     0.063750000000     0.781440000000     0.235490000000    -0.215812   
Br11     Br     0.314970000000     0.841640000000     0.005230000000    -0.218857   
Br12     Br     0.191400000000     0.671910000000     0.213830000000    -0.216833   
Br13     Br     0.871430000000     0.376390000000     0.773610000000    -0.219992   
Br14     Br     0.681210000000     0.179590000000     0.065470000000    -0.222239   
Br15     Br     0.666260000000     0.676280000000     0.707720000000    -0.221161   
Br16     Br     0.927820000000     0.512040000000     0.904590000000    -0.220791   
C1       C      0.874330000000     0.460090000000     0.927460000000     0.349219   
C2       C      0.803370000000     0.473640000000     0.852190000000     0.339877   
C3       C      0.861340000000     0.383710000000     0.855310000000     0.348374   
C4       C      0.790030000000     0.401430000000     0.930390000000     0.340276   
C5       C      0.045870000000     0.633540000000     0.119470000000     0.340246   
C6       C      0.132580000000     0.641100000000     0.177190000000     0.347114   
C7       C      0.114460000000     0.712490000000     0.101180000000     0.338686   
C8       C      0.056090000000     0.707570000000     0.191650000000     0.347674   
C9       C      0.382900000000     0.955270000000     0.931300000000     0.338896   
C10      C      0.372960000000     0.879530000000     0.855120000000     0.339765   
C11      C      0.307460000000     0.877780000000     0.931210000000     0.347966   
C12      C      0.307440000000     0.966810000000     0.868110000000     0.347336   
C13      C      0.628490000000     0.209220000000     0.116180000000     0.348606   
C14      C      0.540070000000     0.152080000000     0.117240000000     0.348219   
C15      C      0.608400000000     0.127310000000     0.183510000000     0.339427   
C16      C      0.559500000000     0.231190000000     0.186140000000     0.345554   
C17      C      0.293120000000     0.442450000000     0.358120000000     0.33689    
C18      C      0.355980000000     0.351160000000     0.366430000000     0.339662   
C19      C      0.355800000000     0.440670000000     0.430460000000     0.348831   
C20      C      0.282940000000     0.357360000000     0.430570000000     0.348654   
C21      C      0.616910000000     0.631500000000     0.668100000000     0.348245   
C22      C      0.589880000000     0.707460000000     0.598950000000     0.339052   
C23      C      0.548500000000     0.597700000000     0.603180000000     0.338891   
C24      C      0.524010000000     0.677320000000     0.668430000000     0.347784   
C25      C      0.850890000000     0.861720000000     0.350000000000     0.337046   
C26      C      0.786600000000     0.945270000000     0.358050000000     0.34827    
C27      C      0.785910000000     0.862050000000     0.428810000000     0.35081    
C28      C      0.860990000000     0.939200000000     0.426200000000     0.350584   
C29      C      0.042950000000     0.185440000000     0.703890000000     0.3407     
C30      C      0.034410000000     0.111310000000     0.619910000000     0.341031   
C31      C      0.100940000000     0.193780000000     0.619050000000     0.340229   
C32      C      0.107860000000     0.105850000000     0.688540000000     0.339953   
C33      C      0.920050000000     0.958150000000     0.476050000000    -0.0288202  
C34      C      0.976340000000     0.090060000000     0.569090000000    -0.0286387  
C35      C      0.022920000000     0.058790000000     0.597590000000    -0.0107251  
C36      C      0.988640000000     0.104410000000     0.598500000000    -0.010407   
C37      C      0.943740000000     0.018770000000     0.553370000000    -0.050377   
C38      C      0.954770000000     0.029380000000     0.490670000000    -0.0494629  
C39      C      0.964730000000     0.039590000000     0.544970000000     0.0640079  
C40      C      0.008940000000     0.046650000000     0.568250000000    -0.0283776  
C41      C      0.933830000000     0.008500000000     0.499070000000     0.066753   
C42      C      0.889870000000     0.003990000000     0.474860000000    -0.0564062  
C43      C      0.928320000000     0.003370000000     0.530690000000    -0.0541682  
C44      C      0.875610000000     0.991950000000     0.445590000000     0.114698   
C45      C      0.907270000000     0.943700000000     0.446940000000    -0.00481376 
C46      C      0.970120000000     0.044890000000     0.513350000000    -0.0529099  
C47      C      0.724810000000     0.815420000000     0.448090000000    -0.0287993  
C48      C      0.641530000000     0.764710000000     0.580060000000    -0.0288512  
C49      C      0.595550000000     0.735410000000     0.548670000000    -0.0103993  
C50      C      0.615020000000     0.758800000000     0.597440000000    -0.0105522  
C51      C      0.661210000000     0.810110000000     0.517240000000    -0.0508928  
C52      C      0.705450000000     0.768840000000     0.510850000000    -0.0490957  
C53      C      0.660090000000     0.779390000000     0.530270000000     0.0641573  
C54      C      0.622530000000     0.742080000000     0.532480000000    -0.0288738  
C55      C      0.706530000000     0.799500000000     0.497710000000     0.0660245  
C56      C      0.744760000000     0.835800000000     0.495600000000    -0.0575879  
C57      C      0.684210000000     0.820200000000     0.501110000000    -0.0544513  
C58      C      0.772280000000     0.841020000000     0.479970000000     0.115964   
C59      C      0.751340000000     0.819460000000     0.430310000000    -0.00484124 
C60      C      0.682500000000     0.758780000000     0.527050000000    -0.0530263  
C61      C      0.217840000000     0.320110000000     0.454080000000    -0.028975   
C62      C      0.159600000000     0.238950000000     0.589620000000    -0.0287287  
C63      C      0.103660000000     0.226800000000     0.571650000000    -0.0107334  
C64      C      0.138300000000     0.232680000000     0.614580000000    -0.0103614  
C65      C      0.170140000000     0.298670000000     0.536530000000    -0.0504559  
C66      C      0.203330000000     0.256110000000     0.503970000000    -0.0495533  
C67      C      0.166840000000     0.265590000000     0.540690000000     0.0638511  
C68      C      0.126370000000     0.233560000000     0.548420000000    -0.0286012  
C69      C      0.206720000000     0.289180000000     0.499920000000     0.0662636  
C70      C      0.249490000000     0.317110000000     0.496930000000    -0.0577691  
C71      C      0.189930000000     0.310470000000     0.516400000000    -0.0545196  
C72      C      0.273840000000     0.322900000000     0.475710000000     0.116066   
C73      C      0.240540000000     0.326240000000     0.430690000000    -0.0048926  
C74      C      0.183640000000     0.244310000000     0.524210000000    -0.053051   
C75      C      0.418610000000     0.483420000000     0.450100000000    -0.0287746  
C76      C      0.494050000000     0.544100000000     0.584460000000    -0.0285512  
C77      C      0.544740000000     0.564160000000     0.555970000000    -0.0104484  
C78      C      0.519300000000     0.549460000000     0.604310000000    -0.0107638  
C79      C      0.475950000000     0.492840000000     0.525640000000    -0.0505995  
C80      C      0.436630000000     0.537500000000     0.508080000000    -0.0492077  
C81      C      0.478740000000     0.524930000000     0.534650000000     0.0642303  
C82      C      0.518860000000     0.558260000000     0.537350000000    -0.028916   
C83      C      0.433930000000     0.505470000000     0.498890000000     0.0661786  
C84      C      0.392590000000     0.474420000000     0.497110000000    -0.0578043  
C85      C      0.453720000000     0.483070000000     0.507980000000    -0.054371   
C86      C      0.366300000000     0.469850000000     0.478770000000     0.116171   
C87      C      0.393550000000     0.479400000000     0.429690000000    -0.00484613 
C88      C      0.458760000000     0.547240000000     0.525880000000    -0.0529669  
C89      C      0.726610000000     0.994420000000     0.338090000000    -0.0292758  
C90      C      0.661130000000     0.069910000000     0.203750000000    -0.028566   
C91      C      0.611300000000     0.094370000000     0.231020000000    -0.0103092  
C92      C      0.637250000000     0.078890000000     0.182950000000    -0.0107496  
C93      C      0.671850000000     0.014000000000     0.261420000000    -0.0504204  
C94      C      0.715000000000     0.052100000000     0.281430000000    -0.0491403  
C95      C      0.672690000000     0.046460000000     0.253170000000     0.064087   
C96      C      0.636040000000     0.084850000000     0.250220000000    -0.0287774  
C97      C      0.714170000000     0.019650000000     0.289660000000     0.0663869  
C98      C      0.751580000000     0.982290000000     0.291120000000    -0.0578221  
C99      C      0.692400000000     0.000590000000     0.279480000000    -0.0542485  
C100     C      0.777220000000     0.973830000000     0.309270000000     0.114983   
C101     C      0.750960000000     0.986560000000     0.358610000000    -0.00545035 
C102     C      0.694490000000     0.065490000000     0.263330000000    -0.0528743  
C103     C      0.528150000000     0.260430000000     0.255650000000    -0.0286469  
C104     C      0.394430000000     0.320620000000     0.301400000000    -0.0285114  
C105     C      0.394570000000     0.313370000000     0.368550000000    -0.0109262  
C106     C      0.367760000000     0.320340000000     0.319360000000    -0.0107159  
C107     C      0.445090000000     0.266290000000     0.288330000000    -0.0503555  
C108     C      0.478970000000     0.317810000000     0.273640000000    -0.0495807  
C109     C      0.438940000000     0.296920000000     0.299550000000     0.0643542  
C110     C      0.420430000000     0.313680000000     0.349040000000    -0.0283537  
C111     C      0.485080000000     0.287180000000     0.262360000000     0.066163   
C112     C      0.500530000000     0.274680000000     0.210700000000    -0.0575136  
C113     C      0.467890000000     0.261370000000     0.269810000000    -0.0540268  
C114     C      0.525350000000     0.274470000000     0.189410000000     0.11551    
C115     C      0.553860000000     0.260000000000     0.235900000000    -0.0051055  
C116     C      0.456070000000     0.322770000000     0.292020000000    -0.0531399  
C117     C      0.242910000000     0.003330000000     0.846870000000    -0.0283906  
C118     C      0.172780000000     0.070440000000     0.711180000000    -0.028833   
C119     C      0.117110000000     0.070880000000     0.733460000000    -0.0107703  
C120     C      0.149400000000     0.072870000000     0.688040000000    -0.0104356  
C121     C      0.201040000000     0.069580000000     0.774410000000    -0.0532817  
C122     C      0.214560000000     0.005250000000     0.784140000000    -0.0544191  
C123     C      0.186300000000     0.045300000000     0.759260000000     0.0637504  
C124     C      0.141650000000     0.068630000000     0.754890000000    -0.028512   
C125     C      0.229230000000     0.029520000000     0.799400000000     0.0658957  
C126     C      0.274130000000     0.006980000000     0.803320000000    -0.057376   
C127     C      0.222300000000     0.061640000000     0.794310000000    -0.049765   
C128     C      0.298740000000     0.004020000000     0.824700000000     0.116353   
C129     C      0.266240000000     0.000380000000     0.870000000000    -0.00456158 
C130     C      0.193270000000     0.013190000000     0.764300000000    -0.0505331  
C131     C      0.470860000000     0.734410000000     0.688100000000    -0.0287475  
C132     C      0.419210000000     0.815470000000     0.827140000000    -0.028386   
C133     C      0.383710000000     0.864610000000     0.801390000000    -0.0107383  
C134     C      0.412650000000     0.845130000000     0.846540000000    -0.0106372  
C135     C      0.455070000000     0.804060000000     0.760540000000    -0.0504817  
C136     C      0.428810000000     0.745200000000     0.752960000000    -0.0495905  
C137     C      0.430140000000     0.798830000000     0.775060000000     0.0642239  
C138     C      0.391870000000     0.834100000000     0.784140000000    -0.0282559  
C139     C      0.453710000000     0.750480000000     0.738340000000     0.0661359  
C140     C      0.489980000000     0.711910000000     0.735430000000    -0.057933   
C141     C      0.466900000000     0.780110000000     0.742460000000    -0.05435    
C142     C      0.499770000000     0.681910000000     0.718300000000     0.116187   
C143     C      0.479890000000     0.705330000000     0.669150000000    -0.00491877 
C144     C      0.417100000000     0.769060000000     0.771320000000    -0.0531041  
C145     C      0.494660000000     0.087690000000     0.092650000000    -0.0289289  
C146     C      0.424330000000     0.024120000000     0.956040000000    -0.0278603  
C147     C      0.412400000000     0.959240000000     0.977240000000    -0.0112546  
C148     C      0.417270000000     0.998130000000     0.932400000000    -0.0118406  
C149     C      0.476630000000     0.033650000000     0.009050000000    -0.0503127  
C150     C      0.443700000000     0.078590000000     0.038890000000    -0.048893   
C151     C      0.448680000000     0.033300000000     0.003830000000     0.0647509  
C152     C      0.419620000000     0.986860000000     0.999030000000    -0.0281673  
C153     C      0.471670000000     0.078980000000     0.044050000000     0.0663402  
C154     C      0.502070000000     0.124170000000     0.049430000000    -0.0577353  
C155     C      0.488110000000     0.056210000000     0.029020000000    -0.0540146  
C156     C      0.510290000000     0.151500000000     0.071240000000     0.115915   
C157     C      0.502170000000     0.113540000000     0.116230000000    -0.0047603  
C158     C      0.432200000000     0.055930000000     0.019010000000    -0.0529213  
C159     C      0.002570000000     0.719960000000     0.249170000000    -0.0284752  
C160     C      0.902880000000     0.842380000000     0.292960000000    -0.0284108  
C161     C      0.867480000000     0.807850000000     0.335440000000    -0.0107755  
C162     C      0.874570000000     0.855270000000     0.299960000000    -0.0110204  
C163     C      0.927820000000     0.774360000000     0.258160000000    -0.0507234  
C164     C      0.976930000000     0.786610000000     0.288080000000    -0.0491268  
C165     C      0.928140000000     0.793580000000     0.284750000000     0.0643406  
C166     C      0.896020000000     0.796530000000     0.327110000000    -0.0284982  
C167     C      0.976620000000     0.767490000000     0.261420000000     0.0661825  
C168     C      0.008660000000     0.768850000000     0.219160000000    -0.0576094  
C169     C      0.951810000000     0.761410000000     0.246480000000    -0.0544312  
C170     C      0.037430000000     0.759190000000     0.209780000000     0.11562    
C171     C      0.031070000000     0.708310000000     0.241210000000    -0.00522339 
C172     C      0.952950000000     0.799630000000     0.299720000000    -0.0528709  
C173     C      0.254700000000     0.816770000000     0.946980000000    -0.0287854  
C174     C      0.161660000000     0.773360000000     0.072790000000    -0.0285946  
C175     C      0.129400000000     0.721220000000     0.047140000000    -0.0104258  
C176     C      0.134400000000     0.764870000000     0.087360000000    -0.0108042  
C177     C      0.181930000000     0.803200000000     0.002650000000    -0.0508439  
C178     C      0.233620000000     0.779480000000     0.015610000000    -0.048953   
C179     C      0.184940000000     0.778060000000     0.023880000000     0.0644003  
C180     C      0.156810000000     0.731470000000     0.033870000000    -0.0287426  
C181     C      0.230630000000     0.804760000000     0.994530000000     0.0662714  
C182     C      0.259030000000     0.851820000000     0.991600000000    -0.0577679  
C183     C      0.204540000000     0.816570000000     0.988100000000    -0.0542795  
C184     C      0.287050000000     0.863390000000     0.981400000000     0.115959   
C185     C      0.282450000000     0.826700000000     0.934490000000    -0.0051107  
C186     C      0.211040000000     0.766220000000     0.030270000000    -0.0527999  
C187     C      0.181800000000     0.577380000000     0.197420000000    -0.0287686  
C188     C      0.261760000000     0.479500000000     0.288050000000    -0.0279302  
C189     C      0.271130000000     0.495040000000     0.353140000000    -0.0116266  
C190     C      0.284330000000     0.462120000000     0.305480000000    -0.0109902  
C191     C      0.213940000000     0.525810000000     0.277150000000    -0.0531099  
C192     C      0.238150000000     0.577650000000     0.246770000000    -0.0496597  
C193     C      0.241740000000     0.531880000000     0.281280000000     0.064395   
C194     C      0.249420000000     0.510870000000     0.333020000000    -0.027626   
C195     C      0.210480000000     0.571880000000     0.242750000000     0.0665074  
C196     C      0.175670000000     0.612560000000     0.241640000000    -0.0575047  
C197     C      0.198380000000     0.545800000000     0.258190000000    -0.0541261  
C198     C      0.163980000000     0.639400000000     0.221470000000     0.115595   
C199     C      0.170220000000     0.602330000000     0.175040000000    -0.00510155 
C200     C      0.253640000000     0.557830000000     0.265880000000    -0.0500468  
C201     C      0.894660000000     0.307690000000     0.833420000000    -0.0288965  
C202     C      0.009410000000     0.255190000000     0.737800000000    -0.0286995  
C203     C      0.012500000000     0.186440000000     0.749320000000    -0.0104371  
C204     C      0.035560000000     0.236990000000     0.730790000000    -0.0104053  
C205     C      0.973460000000     0.272480000000     0.803510000000    -0.0506563  
C206     C      0.928430000000     0.283520000000     0.765760000000    -0.0496118  
C207     C      0.972330000000     0.258580000000     0.774000000000     0.063943   
C208     C      0.987200000000     0.206470000000     0.755810000000    -0.0287856  
C209     C      0.929600000000     0.297510000000     0.795220000000     0.0662059  
C210     C      0.916870000000     0.351980000000     0.807150000000    -0.057893   
C211     C      0.952360000000     0.291890000000     0.814080000000    -0.0545324  
C212     C      0.892410000000     0.373990000000     0.811680000000     0.116286   
C213     C      0.869190000000     0.327640000000     0.839340000000    -0.00489115 
C214     C      0.949610000000     0.264280000000     0.755110000000    -0.0531925  
C215     C      0.678000000000     0.270930000000     0.094440000000    -0.0289936  
C216     C      0.740310000000     0.341390000000     0.955620000000    -0.0284844  
C217     C      0.767190000000     0.397720000000     0.981160000000    -0.0105485  
C218     C      0.748370000000     0.369000000000     0.934190000000    -0.0106639  
C219     C      0.695910000000     0.333670000000     0.016670000000    -0.0499906  
C220     C      0.724790000000     0.279060000000     0.034550000000    -0.049639   
C221     C      0.722610000000     0.329640000000     0.006550000000     0.06396    
C222     C      0.758330000000     0.369020000000     0.000780000000    -0.028634   
C223     C      0.698090000000     0.283110000000     0.044690000000     0.0664472  
C224     C      0.663420000000     0.242380000000     0.048200000000    -0.0580064  
C225     C      0.683660000000     0.310640000000     0.035530000000    -0.0543267  
C226     C      0.654110000000     0.213370000000     0.067220000000     0.11636    
C227     C      0.669440000000     0.243170000000     0.115440000000    -0.00468271 
C228     C      0.737020000000     0.302050000000     0.015600000000    -0.0529934  
C229     C      0.675770000000     0.581410000000     0.690980000000    -0.029041   
C230     C      0.768450000000     0.504200000000     0.782200000000    -0.0275765  
C231     C      0.779170000000     0.524830000000     0.845630000000    -0.0108124  
C232     C      0.793440000000     0.491470000000     0.799040000000    -0.0117941  
C233     C      0.715270000000     0.540240000000     0.772010000000    -0.0530023  
C234     C      0.730230000000     0.595580000000     0.739670000000    -0.0494141  
C235     C      0.741820000000     0.552170000000     0.774690000000     0.064697   
C236     C      0.754860000000     0.536100000000     0.826570000000    -0.02818    
C237     C      0.703830000000     0.583790000000     0.736880000000     0.0665327  
C238     C      0.662010000000     0.613940000000     0.734780000000    -0.0576813  
C239     C      0.696410000000     0.555940000000     0.753240000000    -0.0539183  
C240     C      0.645880000000     0.636920000000     0.714180000000     0.116057   
C241     C      0.660340000000     0.602590000000     0.668070000000    -0.00474149 
C242     C      0.749070000000     0.579890000000     0.758410000000    -0.0502586  
C243     C      0.924030000000     0.473840000000     0.990260000000    -0.0286219  
C244     C      0.993760000000     0.609650000000     0.063220000000    -0.0288293  
C245     C      0.023190000000     0.580980000000     0.114800000000    -0.0106503  
C246     C      0.003120000000     0.630710000000     0.090140000000    -0.0104098  
C247     C      0.948360000000     0.548150000000     0.055700000000    -0.050911   
C248     C      0.974580000000     0.531690000000     0.000550000000    -0.0498006  
C249     C      0.975220000000     0.557680000000     0.051010000000     0.0636347  
C250     C      0.012840000000     0.561830000000     0.086950000000    -0.0286624  
C251     C      0.947660000000     0.522370000000     0.005140000000     0.0659007  
C252     C      0.911910000000     0.524880000000     0.967060000000    -0.0577183  
C253     C      0.934600000000     0.530700000000     0.033000000000    -0.0548159  
C254     C      0.901220000000     0.508710000000     0.937650000000     0.115891   
C255     C      0.913850000000     0.455160000000     0.962050000000    -0.00493182 
C256     C      0.988310000000     0.549250000000     0.023200000000    -0.0533654  
Cd1      Cd     0.831850000000     0.429550000000     0.892220000000     0.510553   
Cd2      Cd     0.087770000000     0.672750000000     0.146790000000     0.510285   
Cd3      Cd     0.342560000000     0.919980000000     0.896700000000     0.50996    
Cd4      Cd     0.584580000000     0.180550000000     0.150660000000     0.511243   
Cd5      Cd     0.321170000000     0.397020000000     0.397000000000     0.510192   
Cd6      Cd     0.569970000000     0.653460000000     0.634310000000     0.510066   
Cd7      Cd     0.821230000000     0.902200000000     0.392200000000     0.511923   
Cd8      Cd     0.071280000000     0.148940000000     0.657100000000     0.506755   
H1       H      0.986130000000     0.060990000000     0.506250000000     0.0470071  
H2       H      0.941620000000     0.950550000000     0.477060000000     0.0426063  
H3       H      0.888780000000     0.030650000000     0.475510000000     0.0629245  
H4       H      0.015910000000     0.044160000000     0.617570000000     0.0463711  
H5       H      0.920550000000     0.949020000000     0.426800000000     0.058959   
H6       H      0.954400000000     0.096060000000     0.568620000000     0.0409064  
H7       H      0.011390000000     0.020140000000     0.567140000000     0.0404478  
H8       H      0.987950000000     0.131000000000     0.596690000000     0.0502881  
H9       H      0.853680000000     0.997450000000     0.447870000000     0.0392333  
H10      H      0.959120000000     0.033700000000     0.466430000000     0.0587166  
H11      H      0.906540000000     0.917200000000     0.449640000000     0.0516854  
H12      H      0.939310000000     0.014570000000     0.577600000000     0.0504627  
H13      H      0.909550000000     0.948430000000     0.496860000000     0.0433272  
H14      H      0.045080000000     0.054920000000     0.595150000000     0.0501836  
H15      H      0.986040000000     0.101170000000     0.548420000000     0.0433612  
H16      H      0.019050000000     0.057260000000     0.547600000000     0.042819   
H17      H      0.912130000000     0.987550000000     0.537800000000     0.0463149  
H18      H      0.878940000000     0.994750000000     0.495590000000     0.0490331  
H19      H      0.975920000000     0.097370000000     0.618630000000     0.0465102  
H20      H      0.682240000000     0.734990000000     0.537030000000     0.0484663  
H21      H      0.713410000000     0.795090000000     0.437640000000     0.0412337  
H22      H      0.748000000000     0.830890000000     0.520690000000     0.0629041  
H23      H      0.581670000000     0.755840000000     0.544040000000     0.0443054  
H24      H      0.761660000000     0.795810000000     0.429110000000     0.058664   
H25      H      0.651450000000     0.786270000000     0.590130000000     0.0430026  
H26      H      0.618460000000     0.747050000000     0.507580000000     0.0401828  
H27      H      0.619620000000     0.753650000000     0.622150000000     0.0556139  
H28      H      0.781160000000     0.863500000000     0.489390000000     0.0370927  
H29      H      0.722490000000     0.752700000000     0.508470000000     0.0582132  
H30      H      0.746540000000     0.826850000000     0.406180000000     0.0494655  
H31      H      0.644190000000     0.826260000000     0.519630000000     0.0495063  
H32      H      0.712440000000     0.837560000000     0.445420000000     0.0414745  
H33      H      0.586340000000     0.713460000000     0.538560000000     0.0512691  
H34      H      0.655160000000     0.743760000000     0.583560000000     0.0483111  
H35      H      0.635430000000     0.720250000000     0.534020000000     0.0452584  
H36      H      0.684560000000     0.844050000000     0.491250000000     0.0453574  
H37      H      0.732670000000     0.858250000000     0.493730000000     0.048603   
H38      H      0.602730000000     0.781120000000     0.596540000000     0.0449636  
H39      H      0.181720000000     0.218660000000     0.527240000000     0.0469928  
H40      H      0.201060000000     0.307480000000     0.441980000000     0.0419054  
H41      H      0.256090000000     0.302590000000     0.517210000000     0.0629221  
H42      H      0.092160000000     0.249350000000     0.575560000000     0.046183   
H43      H      0.245050000000     0.303450000000     0.418370000000     0.0580287  
H44      H      0.175460000000     0.254830000000     0.599600000000     0.0410164  
H45      H      0.117450000000     0.245520000000     0.527760000000     0.0404117  
H46      H      0.147900000000     0.219040000000     0.633780000000     0.0509702  
H47      H      0.288400000000     0.338480000000     0.488330000000     0.0387922  
H48      H      0.216240000000     0.239460000000     0.491640000000     0.0582039  
H49      H      0.233190000000     0.343700000000     0.413140000000     0.0497098  
H50      H      0.157520000000     0.315330000000     0.549220000000     0.0502814  
H51      H      0.210010000000     0.343530000000     0.462630000000     0.042204   
H52      H      0.089530000000     0.209020000000     0.561340000000     0.0503271  
H53      H      0.169290000000     0.215840000000     0.582960000000     0.0440644  
H54      H      0.135380000000     0.210370000000     0.540850000000     0.0431393  
H55      H      0.192310000000     0.336140000000     0.513940000000     0.0463612  
H56      H      0.242090000000     0.340580000000     0.505880000000     0.0498739  
H57      H      0.131480000000     0.256100000000     0.624100000000     0.0463083  
H58      H      0.460270000000     0.572120000000     0.532780000000     0.0480796  
H59      H      0.432810000000     0.500130000000     0.438270000000     0.0415625  
H60      H      0.387650000000     0.484180000000     0.520440000000     0.0634003  
H61      H      0.557140000000     0.541930000000     0.555430000000     0.0447383  
H62      H      0.385770000000     0.503580000000     0.423510000000     0.0581467  
H63      H      0.481520000000     0.525150000000     0.595590000000     0.0429269  
H64      H      0.524600000000     0.549670000000     0.513850000000     0.0404566  
H65      H      0.513040000000     0.558310000000     0.627520000000     0.0552549  
H66      H      0.354310000000     0.450760000000     0.490390000000     0.039073   
H67      H      0.421480000000     0.554950000000     0.501410000000     0.0582137  
H68      H      0.399660000000     0.467360000000     0.407810000000     0.0495809  
H69      H      0.491050000000     0.475380000000     0.532380000000     0.0500904  
H70      H      0.428830000000     0.459770000000     0.452560000000     0.0422181  
H71      H      0.556600000000     0.583550000000     0.544670000000     0.0515921  
H72      H      0.482010000000     0.566670000000     0.583810000000     0.047209   
H73      H      0.507810000000     0.581370000000     0.534810000000     0.0451635  
H74      H      0.452010000000     0.458120000000     0.501410000000     0.0461357  
H75      H      0.402380000000     0.450620000000     0.500480000000     0.0500663  
H76      H      0.529640000000     0.526010000000     0.607530000000     0.0458567  
H77      H      0.695680000000     0.090600000000     0.257210000000     0.0482521  
H78      H      0.714130000000     0.012850000000     0.350080000000     0.0420925  
H79      H      0.757420000000     0.991380000000     0.267810000000     0.0628496  
H80      H      0.596920000000     0.073870000000     0.230710000000     0.0451413  
H81      H      0.760820000000     0.009370000000     0.365660000000     0.0615053  
H82      H      0.672620000000     0.050210000000     0.192370000000     0.0425635  
H83      H      0.628970000000     0.076190000000     0.273230000000     0.0402252  
H84      H      0.645190000000     0.088550000000     0.160730000000     0.0550069  
H85      H      0.786980000000     0.953030000000     0.297640000000     0.0379962  
H86      H      0.731680000000     0.066990000000     0.289010000000     0.0592205  
H87      H      0.743560000000     0.974610000000     0.380020000000     0.0498321  
H88      H      0.655240000000     0.999070000000     0.253710000000     0.0492128  
H89      H      0.714060000000     0.972460000000     0.335150000000     0.0409889  
H90      H      0.601030000000     0.114880000000     0.242530000000     0.0514065  
H91      H      0.674790000000     0.091020000000     0.206040000000     0.0465785  
H92      H      0.648920000000     0.106420000000     0.253920000000     0.0447462  
H93      H      0.691350000000     0.975410000000     0.285410000000     0.0449626  
H94      H      0.739370000000     0.960130000000     0.287680000000     0.048135   
H95      H      0.625580000000     0.056770000000     0.177640000000     0.0460564  
H96      H      0.451620000000     0.346750000000     0.300130000000     0.0470815  
H97      H      0.533690000000     0.267740000000     0.279620000000     0.04221    
H98      H      0.485540000000     0.292250000000     0.201610000000     0.0644452  
H99      H      0.388650000000     0.288010000000     0.372710000000     0.0486431  
H100     H      0.564050000000     0.283640000000     0.238140000000     0.0601905  
H101     H      0.390660000000     0.310560000000     0.277900000000     0.0418767  
H102     H      0.435840000000     0.298430000000     0.360710000000     0.0409529  
H103     H      0.353100000000     0.336380000000     0.307480000000     0.052785   
H104     H      0.518860000000     0.265520000000     0.166320000000     0.0432336  
H105     H      0.491870000000     0.337930000000     0.267890000000     0.0575073  
H106     H      0.567870000000     0.241520000000     0.245220000000     0.0518952  
H107     H      0.432000000000     0.246250000000     0.293730000000     0.0511732  
H108     H      0.519670000000     0.235730000000     0.256540000000     0.0440522  
H109     H      0.398880000000     0.324550000000     0.391400000000     0.0530219  
H110     H      0.401460000000     0.345830000000     0.298720000000     0.0452705  
H111     H      0.428320000000     0.338650000000     0.347930000000     0.0438491  
H112     H      0.471950000000     0.237510000000     0.261120000000     0.0472353  
H113     H      0.490960000000     0.250520000000     0.210070000000     0.0525765  
H114     H      0.359390000000     0.295610000000     0.318830000000     0.0472614  
H115     H      0.182120000000     0.994280000000     0.752780000000     0.0491554  
H116     H      0.225630000000     0.015300000000     0.858680000000     0.0415243  
H117     H      0.279840000000     0.021410000000     0.782620000000     0.0623738  
H118     H      0.109180000000     0.046290000000     0.729420000000     0.045231   
H119     H      0.270200000000     0.024400000000     0.880190000000     0.0594818  
H120     H      0.189930000000     0.057880000000     0.699700000000     0.0408499  
H121     H      0.135740000000     0.054770000000     0.775870000000     0.0397678  
H122     H      0.155780000000     0.088350000000     0.668390000000     0.0507473  
H123     H      0.314430000000     0.989870000000     0.812310000000     0.0382455  
H124     H      0.219570000000     0.980250000000     0.787540000000     0.0451994  
H125     H      0.259880000000     0.984220000000     0.889150000000     0.0494526  
H126     H      0.196080000000     0.094580000000     0.770880000000     0.0468866  
H127     H      0.236350000000     0.978860000000     0.839810000000     0.0415463  
H128     H      0.101020000000     0.084870000000     0.745330000000     0.0504973  
H129     H      0.179580000000     0.095030000000     0.717530000000     0.0439776  
H130     H      0.147600000000     0.093210000000     0.762310000000     0.0433512  
H131     H      0.233480000000     0.080540000000     0.805790000000     0.0576001  
H132     H      0.268350000000     0.982610000000     0.795130000000     0.0487382  
H133     H      0.145180000000     0.048540000000     0.678670000000     0.0456666  
H134     H      0.398010000000     0.764250000000     0.782680000000     0.0470389  
H135     H      0.452120000000     0.744310000000     0.677480000000     0.0421263  
H136     H      0.485580000000     0.705500000000     0.759960000000     0.0630543  
H137     H      0.396110000000     0.884880000000     0.792520000000     0.0480711  
H138     H      0.462460000000     0.688660000000     0.666830000000     0.059086   
H139     H      0.439580000000     0.806620000000     0.834050000000     0.0414637  
H140     H      0.391820000000     0.839250000000     0.758840000000     0.0405228  
H141     H      0.410390000000     0.837700000000     0.871150000000     0.0521369  
H142     H      0.519380000000     0.674530000000     0.728700000000     0.040028   
H143     H      0.418600000000     0.722390000000     0.750320000000     0.058045   
H144     H      0.485480000000     0.713470000000     0.645480000000     0.0500959  
H145     H      0.465450000000     0.826710000000     0.763500000000     0.0506861  
H146     H      0.486920000000     0.753080000000     0.686840000000     0.0428242  
H147     H      0.362200000000     0.870040000000     0.795960000000     0.0512806  
H148     H      0.404200000000     0.796250000000     0.832200000000     0.0441842  
H149     H      0.376590000000     0.815080000000     0.788760000000     0.042624   
H150     H      0.486380000000     0.784650000000     0.731900000000     0.0465293  
H151     H      0.506530000000     0.730030000000     0.735500000000     0.0509208  
H152     H      0.430040000000     0.862000000000     0.845260000000     0.0475152  
H153     H      0.410530000000     0.056080000000     0.015470000000     0.048413   
H154     H      0.479800000000     0.071140000000     0.103610000000     0.0420337  
H155     H      0.492840000000     0.134530000000     0.028140000000     0.0639034  
H156     H      0.430860000000     0.944610000000     0.973150000000     0.0482373  
H157     H      0.483250000000     0.124510000000     0.125250000000     0.0586611  
H158     H      0.438130000000     0.041700000000     0.944780000000     0.0429614  
H159     H      0.429910000000     0.976720000000     0.019780000000     0.0418057  
H160     H      0.405450000000     0.009220000000     0.913290000000     0.0559402  
H161     H      0.526770000000     0.165310000000     0.059880000000     0.0402735  
H162     H      0.430810000000     0.095880000000     0.050390000000     0.0580117  
H163     H      0.512650000000     0.101940000000     0.136070000000     0.0498959  
H164     H      0.489520000000     0.016310000000     0.997610000000     0.0510531  
H165     H      0.513090000000     0.073650000000     0.086630000000     0.0432027  
H166     H      0.397230000000     0.943660000000     0.988850000000     0.0560696  
H167     H      0.405500000000     0.036920000000     0.962930000000     0.0461814  
H168     H      0.400700000000     0.998920000000     0.006810000000     0.0452705  
H169     H      0.509760000000     0.055860000000     0.032730000000     0.0468075  
H170     H      0.520630000000     0.110930000000     0.042350000000     0.0504604  
H171     H      0.436360000000     0.988670000000     0.922320000000     0.0474691  
H172     H      0.953780000000     0.814560000000     0.320200000000     0.0482272  
H173     H      0.996970000000     0.710300000000     0.272340000000     0.0419913  
H174     H      0.007300000000     0.795490000000     0.219860000000     0.0628866  
H175     H      0.852750000000     0.794830000000     0.320580000000     0.0462405  
H176     H      0.044750000000     0.714180000000     0.260850000000     0.0608954  
H177     H      0.908490000000     0.849710000000     0.269010000000     0.0425605  
H178     H      0.896530000000     0.769890000000     0.328410000000     0.0413206  
H179     H      0.875230000000     0.881900000000     0.299610000000     0.0563965  
H180     H      0.040800000000     0.767350000000     0.185560000000     0.0385944  
H181     H      0.995880000000     0.791610000000     0.299710000000     0.0586378  
H182     H      0.030650000000     0.681770000000     0.238820000000     0.0503127  
H183     H      0.908910000000     0.769620000000     0.246350000000     0.0498247  
H184     H      0.988080000000     0.710220000000     0.231800000000     0.0414727  
H185     H      0.863230000000     0.801350000000     0.359940000000     0.0540179  
H186     H      0.917610000000     0.853380000000     0.309340000000     0.0465999  
H187     H      0.910570000000     0.806210000000     0.344440000000     0.0454612  
H188     H      0.951020000000     0.746890000000     0.225730000000     0.0453419  
H189     H      0.994280000000     0.760200000000     0.201140000000     0.0486743  
H190     H      0.860650000000     0.847340000000     0.281230000000     0.0471046  
H191     H      0.213970000000     0.747040000000     0.046810000000     0.0489415  
H192     H      0.250550000000     0.791740000000     0.939420000000     0.0417347  
H193     H      0.257660000000     0.853170000000     0.017310000000     0.0632012  
H194     H      0.113130000000     0.732680000000     0.033230000000     0.0457859  
H195     H      0.297380000000     0.807770000000     0.940550000000     0.058577   
H196     H      0.165360000000     0.799420000000     0.076370000000     0.0434496  
H197     H      0.156850000000     0.726500000000     0.008530000000     0.0405547  
H198     H      0.135670000000     0.768900000000     0.112780000000     0.0577927  
H199     H      0.288600000000     0.889350000000     0.986970000000     0.0381619  
H200     H      0.253580000000     0.770340000000     0.020960000000     0.0592028  
H201     H      0.281340000000     0.827910000000     0.908790000000     0.0490611  
H202     H      0.162020000000     0.812710000000     0.997690000000     0.0500953  
H203     H      0.238940000000     0.832630000000     0.936740000000     0.04111    
H204     H      0.127300000000     0.694810000000     0.044610000000     0.0510839  
H205     H      0.177970000000     0.759780000000     0.084820000000     0.0481312  
H206     H      0.173020000000     0.716800000000     0.044810000000     0.044867   
H207     H      0.201690000000     0.836300000000     0.972160000000     0.0453545  
H208     H      0.243390000000     0.868210000000     0.981880000000     0.0487403  
H209     H      0.118780000000     0.781410000000     0.077980000000     0.0480117  
H210     H      0.275010000000     0.562700000000     0.268760000000     0.053026   
H211     H      0.196680000000     0.562360000000     0.184610000000     0.0418162  
H212     H      0.185750000000     0.623400000000     0.262200000000     0.0635556  
H213     H      0.288400000000     0.511910000000     0.355640000000     0.0510132  
H214     H      0.187290000000     0.614430000000     0.163010000000     0.0579426  
H215     H      0.267380000000     0.480600000000     0.263090000000     0.0404358  
H216     H      0.245880000000     0.535590000000     0.341850000000     0.0425467  
H217     H      0.284570000000     0.436610000000     0.297990000000     0.0513399  
H218     H      0.147450000000     0.651170000000     0.234750000000     0.0398862  
H219     H      0.247680000000     0.597710000000     0.235180000000     0.0595324  
H220     H      0.158070000000     0.589720000000     0.157110000000     0.0500251  
H221     H      0.204310000000     0.505780000000     0.288640000000     0.0451368  
H222     H      0.165140000000     0.561530000000     0.205590000000     0.0416579  
H223     H      0.262640000000     0.490960000000     0.376680000000     0.0537602  
H224     H      0.242600000000     0.465590000000     0.290090000000     0.042311   
H225     H      0.230170000000     0.497200000000     0.335260000000     0.0422661  
H226     H      0.176980000000     0.541010000000     0.255680000000     0.0454182  
H227     H      0.158840000000     0.597190000000     0.250250000000     0.049259   
H228     H      0.304070000000     0.472840000000     0.298730000000     0.0485766  
H229     H      0.948360000000     0.254130000000     0.732090000000     0.0470381  
H230     H      0.888660000000     0.282070000000     0.831320000000     0.0418792  
H231     H      0.927820000000     0.359320000000     0.785750000000     0.0632857  
H232     H      0.023980000000     0.183680000000     0.771310000000     0.0450975  
H233     H      0.853740000000     0.321220000000     0.821690000000     0.0589566  
H234     H      0.014760000000     0.280270000000     0.744160000000     0.0409231  
H235     H      0.976110000000     0.195440000000     0.775550000000     0.0401442  
H236     H      0.045340000000     0.247960000000     0.710150000000     0.0504095  
H237     H      0.900110000000     0.398560000000     0.816430000000     0.0405429  
H238     H      0.911180000000     0.287920000000     0.750890000000     0.05814    
H239     H      0.860870000000     0.321070000000     0.862420000000     0.0499919  
H240     H      0.990910000000     0.268510000000     0.818180000000     0.0498333  
H241     H      0.908480000000     0.310060000000     0.853660000000     0.0420346  
H242     H      0.006170000000     0.162140000000     0.741600000000     0.0507132  
H243     H      0.996650000000     0.255900000000     0.716540000000     0.0443905  
H244     H      0.973840000000     0.205800000000     0.735050000000     0.0435247  
H245     H      0.953940000000     0.302770000000     0.836770000000     0.046008   
H246     H      0.930980000000     0.355110000000     0.827050000000     0.0502026  
H247     H      0.049560000000     0.239880000000     0.750760000000     0.0452344  
H248     H      0.757620000000     0.298260000000     0.007950000000     0.046984   
H249     H      0.695300000000     0.283560000000     0.105550000000     0.0430123  
H250     H      0.669720000000     0.234100000000     0.024770000000     0.0632149  
H251     H      0.751520000000     0.416750000000     0.983080000000     0.045618   
H252     H      0.687630000000     0.228620000000     0.121060000000     0.0591457  
H253     H      0.722060000000     0.329530000000     0.945780000000     0.0414007  
H254     H      0.753450000000     0.377710000000     0.024510000000     0.0403961  
H255     H      0.754500000000     0.358910000000     0.911410000000     0.0519504  
H256     H      0.635480000000     0.203680000000     0.056240000000     0.0396161  
H257     H      0.736080000000     0.257940000000     0.041280000000     0.057858   
H258     H      0.661580000000     0.253210000000     0.137530000000     0.0525596  
H259     H      0.684560000000     0.354700000000     0.009790000000     0.0510529  
H260     H      0.660880000000     0.288150000000     0.092400000000     0.0452576  
H261     H      0.786340000000     0.407460000000     0.990850000000     0.0503502  
H262     H      0.757010000000     0.323460000000     0.956310000000     0.0444405  
H263     H      0.775450000000     0.351750000000     0.002530000000     0.0434805  
H264     H      0.662950000000     0.314260000000     0.042860000000     0.0480528  
H265     H      0.646010000000     0.259030000000     0.045180000000     0.0514782  
H266     H      0.730340000000     0.384440000000     0.930310000000     0.0458201  
H267     H      0.769420000000     0.589300000000     0.760240000000     0.0534531  
H268     H      0.693410000000     0.570710000000     0.678730000000     0.0421615  
H269     H      0.669250000000     0.627140000000     0.755620000000     0.0630754  
H270     H      0.794930000000     0.543830000000     0.845090000000     0.049961   
H271     H      0.674980000000     0.618810000000     0.656380000000     0.0575939  
H272     H      0.772910000000     0.504860000000     0.756930000000     0.0426733  
H273     H      0.749200000000     0.560610000000     0.834430000000     0.0414657  
H274     H      0.796610000000     0.466050000000     0.792160000000     0.0571525  
H275     H      0.627080000000     0.643590000000     0.726770000000     0.0388026  
H276     H      0.736190000000     0.617000000000     0.727250000000     0.058963   
H277     H      0.651240000000     0.587010000000     0.649950000000     0.04932    
H278     H      0.709190000000     0.518830000000     0.784350000000     0.0456677  
H279     H      0.662380000000     0.561520000000     0.698820000000     0.0421721  
H280     H      0.772690000000     0.521820000000     0.870140000000     0.0509635  
H281     H      0.751210000000     0.487470000000     0.786020000000     0.0435896  
H282     H      0.737400000000     0.519860000000     0.830970000000     0.0426436  
H283     H      0.676110000000     0.546390000000     0.751480000000     0.0459856  
H284     H      0.648390000000     0.594390000000     0.742900000000     0.0493776  
H285     H      0.811400000000     0.505320000000     0.791210000000     0.0525583  
H286     H      0.008960000000     0.556570000000     0.018850000000     0.0469006  
H287     H      0.940740000000     0.459960000000     0.001180000000     0.0411997  
H288     H      0.919370000000     0.549300000000     0.961080000000     0.0621873  
H289     H      0.008560000000     0.578180000000     0.134180000000     0.0449774  
H290     H      0.931510000000     0.448510000000     0.947450000000     0.0576248  
H291     H      0.975050000000     0.620360000000     0.053280000000     0.0403499  
H292     H      0.008260000000     0.536980000000     0.094730000000     0.0399245  
H293     H      0.008860000000     0.654630000000     0.080880000000     0.0504068  
H294     H      0.882990000000     0.522130000000     0.929910000000     0.0375793  
H295     H      0.984810000000     0.525660000000     0.979140000000     0.0578053  
H296     H      0.904320000000     0.432530000000     0.970210000000     0.0492659  
H297     H      0.937970000000     0.554670000000     0.076870000000     0.049175   
H298     H      0.907300000000     0.476010000000     0.007420000000     0.0414178  
H299     H      0.042820000000     0.570650000000     0.122420000000     0.0504866  
H300     H      0.009620000000     0.609550000000     0.044890000000     0.0442017  
H301     H      0.029080000000     0.560610000000     0.069120000000     0.043336   
H302     H      0.913720000000     0.524080000000     0.037000000000     0.0452953  
H303     H      0.894950000000     0.527730000000     0.983820000000     0.0485931  
H304     H      0.985840000000     0.634200000000     0.106280000000     0.0442302  
N1       N      0.880190000000     0.957280000000     0.440870000000    -0.159881   
N2       N      0.918210000000     0.993320000000     0.474920000000    -0.10077    
N3       N      0.980080000000     0.055100000000     0.569140000000    -0.112268   
N4       N      0.016460000000     0.092760000000     0.603800000000    -0.15319    
N5       N      0.769460000000     0.842520000000     0.445920000000    -0.160697   
N6       N      0.730530000000     0.808820000000     0.480910000000    -0.100533   
N7       N      0.636020000000     0.769880000000     0.546870000000    -0.112679   
N8       N      0.599810000000     0.732760000000     0.582340000000    -0.152723   
N9       N      0.265510000000     0.337540000000     0.446030000000    -0.16035    
N10      N      0.228040000000     0.300360000000     0.479780000000    -0.100405   
N11      N      0.146920000000     0.254420000000     0.562660000000    -0.112353   
N12      N      0.114670000000     0.215770000000     0.601590000000    -0.152863   
N13      N      0.372060000000     0.461650000000     0.446140000000    -0.160247   
N14      N      0.410770000000     0.496420000000     0.480480000000    -0.100486   
N15      N      0.501920000000     0.534060000000     0.553000000000    -0.11261    
N16      N      0.537880000000     0.571610000000     0.588390000000    -0.152601   
N17      N      0.770980000000     0.966640000000     0.342030000000    -0.159635   
N18      N      0.735980000000     0.006680000000     0.308010000000    -0.0999815  
N19      N      0.651210000000     0.059350000000     0.234250000000    -0.11256    
N20      N      0.619300000000     0.101770000000     0.198910000000    -0.152531   
N21      N      0.546890000000     0.254480000000     0.203110000000    -0.159362   
N22      N      0.508400000000     0.283210000000     0.242580000000    -0.100579   
N23      N      0.414730000000     0.301140000000     0.317800000000    -0.11235    
N24      N      0.372470000000     0.329630000000     0.351850000000    -0.152112   
N25      N      0.291000000000     0.989010000000     0.854390000000    -0.160724   
N26      N      0.251520000000     0.022300000000     0.819850000000    -0.100586   
N27      N      0.164040000000     0.052450000000     0.738760000000    -0.112602   
N28      N      0.124770000000     0.084970000000     0.703370000000    -0.15324    
N29      N      0.502280000000     0.688450000000     0.684810000000    -0.160118   
N30      N      0.465580000000     0.724870000000     0.720410000000    -0.100405   
N31      N      0.418990000000     0.823990000000     0.794120000000    -0.112172   
N32      N      0.388220000000     0.861720000000     0.835100000000    -0.152371   
N33      N      0.518780000000     0.138780000000     0.101650000000    -0.160169   
N34      N      0.482750000000     0.102610000000     0.064930000000    -0.100444   
N35      N      0.437650000000     0.009540000000     0.983080000000    -0.112176   
N36      N      0.402560000000     0.971410000000     0.947180000000    -0.151598   
N37      N      0.041250000000     0.724240000000     0.212980000000    -0.15975    
N38      N      0.001920000000     0.755230000000     0.249660000000    -0.100429   
N39      N      0.903020000000     0.807190000000     0.295590000000    -0.112552   
N40      N      0.864660000000     0.842540000000     0.329740000000    -0.15137    
N41      N      0.291550000000     0.857380000000     0.948060000000    -0.160211   
N42      N      0.254600000000     0.818730000000     0.981000000000    -0.100316   
N43      N      0.161210000000     0.765900000000     0.039470000000    -0.112356   
N44      N      0.126680000000     0.731670000000     0.079630000000    -0.151669   
N45      N      0.154120000000     0.626830000000     0.191510000000    -0.16008    
N46      N      0.195100000000     0.593580000000     0.223570000000    -0.100444   
N47      N      0.258580000000     0.511960000000     0.300660000000    -0.111888   
N48      N      0.281270000000     0.464880000000     0.339430000000    -0.151488   
N49      N      0.874910000000     0.362320000000     0.837020000000    -0.159914   
N50      N      0.907900000000     0.318470000000     0.804720000000    -0.100435   
N51      N      0.994970000000     0.239600000000     0.763530000000    -0.112601   
N52      N      0.029970000000     0.202570000000     0.726420000000    -0.153427   
N53      N      0.649410000000     0.222450000000     0.099850000000    -0.159597   
N54      N      0.686060000000     0.258580000000     0.063860000000    -0.100341   
N55      N      0.734400000000     0.353820000000     0.986790000000    -0.112315   
N56      N      0.769940000000     0.388600000000     0.948290000000    -0.153102   
N57      N      0.639660000000     0.622340000000     0.683780000000    -0.160347   
N58      N      0.685010000000     0.600830000000     0.717340000000    -0.100397   
N59      N      0.762020000000     0.536550000000     0.793520000000    -0.11187    
N60      N      0.790840000000     0.495010000000     0.832950000000    -0.151431   
N61      N      0.894990000000     0.474550000000     0.943240000000    -0.160569   
N62      N      0.933830000000     0.505580000000     0.980560000000    -0.100568   
N63      N      0.988280000000     0.576980000000     0.074410000000    -0.112647   
N64      N      0.025500000000     0.615360000000     0.107210000000    -0.153425   
O1       O      0.815490000000     0.449160000000     0.841870000000    -0.241429   
O2       O      0.791610000000     0.395960000000     0.901610000000    -0.249376   
O3       O      0.859080000000     0.475620000000     0.909310000000    -0.242356   
O4       O      0.864400000000     0.413660000000     0.852240000000    -0.238378   
O5       O      0.844640000000     0.374790000000     0.875840000000    -0.24803    
O6       O      0.869710000000     0.430320000000     0.929610000000    -0.251559   
O7       O      0.804140000000     0.477580000000     0.881260000000    -0.247799   
O8       O      0.807910000000     0.419830000000     0.941530000000    -0.252221   
O9       O      0.124570000000     0.632610000000     0.150570000000    -0.249126   
O10      O      0.066080000000     0.721020000000     0.167960000000    -0.238725   
O11      O      0.064170000000     0.621560000000     0.136430000000    -0.249998   
O12      O      0.105950000000     0.684680000000     0.094640000000    -0.249555   
O13      O      0.110700000000     0.721700000000     0.128770000000    -0.239195   
O14      O      0.047240000000     0.663470000000     0.114990000000    -0.253616   
O15      O      0.119790000000     0.664020000000     0.189580000000    -0.239822   
O16      O      0.060840000000     0.677880000000     0.194570000000    -0.249089   
O17      O      0.378550000000     0.881380000000     0.883690000000    -0.249765   
O18      O      0.302030000000     0.954690000000     0.894270000000    -0.252594   
O19      O      0.371740000000     0.930380000000     0.942080000000    -0.240919   
O20      O      0.313570000000     0.872220000000     0.903220000000    -0.252752   
O21      O      0.317410000000     0.902980000000     0.942960000000    -0.238156   
O22      O      0.375180000000     0.963990000000     0.904670000000    -0.247623   
O23      O      0.352950000000     0.895930000000     0.845980000000    -0.24595    
O24      O      0.329040000000     0.957270000000     0.855410000000    -0.24076    
O25      O      0.554050000000     0.174600000000     0.105820000000    -0.237168   
O26      O      0.577630000000     0.213350000000     0.197620000000    -0.245035   
O27      O      0.624680000000     0.215300000000     0.144580000000    -0.249988   
O28      O      0.613850000000     0.133010000000     0.155380000000    -0.247835   
O29      O      0.592040000000     0.146450000000     0.196440000000    -0.245327   
O30      O      0.611950000000     0.189900000000     0.103830000000    -0.239005   
O31      O      0.546790000000     0.142790000000     0.144060000000    -0.25347    
O32      O      0.553440000000     0.225900000000     0.158120000000    -0.243625   
O33      O      0.336420000000     0.364510000000     0.352640000000    -0.24462    
O34      O      0.305610000000     0.365240000000     0.441800000000    -0.239923   
O35      O      0.305530000000     0.418470000000     0.347100000000    -0.243393   
O36      O      0.359780000000     0.433880000000     0.402220000000    -0.252914   
O37      O      0.335720000000     0.427190000000     0.443210000000    -0.238781   
O38      O      0.293170000000     0.445050000000     0.387380000000    -0.246134   
O39      O      0.359370000000     0.358920000000     0.394500000000    -0.247716   
O40      O      0.277710000000     0.368210000000     0.403870000000    -0.252724   
O41      O      0.593620000000     0.704980000000     0.627830000000    -0.248174   
O42      O      0.526580000000     0.682270000000     0.639630000000    -0.253247   
O43      O      0.612140000000     0.622280000000     0.640700000000    -0.252989   
O44      O      0.564170000000     0.617190000000     0.589610000000    -0.245106   
O45      O      0.543100000000     0.603880000000     0.631210000000    -0.248376   
O46      O      0.599770000000     0.650460000000     0.679840000000    -0.236891   
O47      O      0.576580000000     0.685040000000     0.586350000000    -0.246225   
O48      O      0.542700000000     0.661350000000     0.681210000000    -0.238685   
O49      O      0.805480000000     0.929730000000     0.345150000000    -0.236443   
O50      O      0.838550000000     0.950880000000     0.417860000000    -0.240412   
O51      O      0.847180000000     0.891270000000     0.344770000000    -0.237464   
O52      O      0.784750000000     0.862820000000     0.399530000000    -0.252309   
O53      O      0.803480000000     0.880020000000     0.441270000000    -0.245042   
O54      O      0.840900000000     0.850920000000     0.374920000000    -0.244253   
O55      O      0.783490000000     0.940500000000     0.386800000000    -0.248026   
O56      O      0.864900000000     0.910080000000     0.419340000000    -0.248747   
O57      O      0.028460000000     0.139250000000     0.629100000000    -0.250821   
O58      O      0.112760000000     0.116150000000     0.661520000000    -0.248265   
O59      O      0.039310000000     0.155630000000     0.700510000000    -0.247802   
O60      O      0.079350000000     0.180630000000     0.609600000000    -0.251277   
O61      O      0.108800000000     0.185860000000     0.645910000000    -0.24776    
O62      O      0.059560000000     0.198390000000     0.685440000000    -0.252515   
O63      O      0.057630000000     0.101150000000     0.627370000000    -0.253443   
O64      O      0.086180000000     0.115660000000     0.700880000000    -0.250714   


