data_structure

_audit_creation_method RASPA-1.0
_audit_creation_date 2023-6-5
_audit_author_name 'Poobodin Mano'

_cell_length_a    58.1728
_cell_length_b    55.3718
_cell_length_c    30.1977
_cell_angle_alpha 90.033
_cell_angle_beta  89.9064
_cell_angle_gamma 90
_cell_volume      97270.7

_symmetry_cell_setting          triclinic
_symmetry_space_group_name_Hall 'P 1'
_symmetry_space_group_name_H-M  'P 1'
_symmetry_Int_Tables_number     1

_symmetry_equiv_pos_as_xyz 'x,y,z'

loop_
_atom_site_label
_atom_site_type_symbol
_atom_site_fract_x
_atom_site_fract_y
_atom_site_fract_z
_atom_site_charge
Br1      Br     0.221030000000     0.911070000000     0.467410000000    -0.217801   
Br2      Br     0.895660000000     0.853710000000     0.621790000000    -0.218025   
Br3      Br     0.821050000000     0.909340000000     0.391500000000    -0.217853   
Br4      Br     0.094730000000     0.195860000000     0.596650000000    -0.217569   
Br5      Br     0.700060000000     0.780500000000     0.980760000000    -0.219035   
Br6      Br     0.818730000000     0.765150000000     0.428080000000    -0.212966   
Br7      Br     0.758860000000     0.190710000000     0.567700000000    -0.215569   
Br8      Br     0.706620000000     0.267680000000     0.021630000000    -0.220251   
Br9      Br     0.635240000000     0.420870000000     0.881670000000    -0.218871   
Br10     Br     0.244480000000     0.714370000000     0.910470000000    -0.189193   
Br11     Br     0.264530000000     0.755610000000     0.024690000000    -0.196421   
Br12     Br     0.394060000000     0.738600000000     0.906410000000    -0.213183   
Br13     Br     0.318470000000     0.255850000000     0.922770000000    -0.2131     
Br14     Br     0.214520000000     0.272100000000     0.466040000000    -0.217987   
Br15     Br     0.400780000000     0.322490000000     0.094480000000    -0.216865   
Br16     Br     0.268690000000     0.618620000000     0.984010000000    -0.204108   
C1       C      0.315260000000     0.323930000000     0.084390000000     0.341974   
C2       C      0.378250000000     0.335330000000     0.999930000000     0.347944   
C3       C      0.302870000000     0.311490000000     0.936560000000     0.347309   
C4       C      0.320250000000     0.390460000000     0.973080000000     0.339334   
C5       C      0.318790000000     0.641380000000     0.963560000000     0.347863   
C6       C      0.301350000000     0.714610000000     0.050310000000     0.349749   
C7       C      0.372560000000     0.704120000000     0.982190000000     0.347422   
C8       C      0.299590000000     0.715410000000     0.902990000000     0.350052   
C9       C      0.688570000000     0.326310000000     0.892050000000     0.341012   
C10      C      0.617150000000     0.330190000000     0.978620000000     0.339679   
C11      C      0.692710000000     0.323420000000     0.036100000000     0.348226   
C12      C      0.660160000000     0.397180000000     0.966510000000     0.347189   
C13      C      0.651520000000     0.648380000000     0.008300000000     0.339598   
C14      C      0.687350000000     0.724730000000     0.960220000000     0.348061   
C15      C      0.610050000000     0.716210000000     0.016180000000     0.338911   
C16      C      0.678610000000     0.711550000000     0.104580000000     0.340255   
C17      C      0.805770000000     0.217180000000     0.538470000000     0.3486     
C18      C      0.823370000000     0.144430000000     0.460700000000     0.338677   
C19      C      0.814310000000     0.219170000000     0.385520000000     0.341451   
C20      C      0.879680000000     0.202480000000     0.476980000000     0.340494   
C21      C      0.807450000000     0.826810000000     0.607520000000     0.340726   
C22      C      0.871460000000     0.839610000000     0.528790000000     0.346446   
C23      C      0.797010000000     0.816460000000     0.456810000000     0.348431   
C24      C      0.814840000000     0.893850000000     0.494860000000     0.347489   
C25      C      0.110660000000     0.835600000000     0.493310000000     0.342529   
C26      C      0.174810000000     0.812420000000     0.399450000000     0.342259   
C27      C      0.168520000000     0.891430000000     0.458580000000     0.3469     
C28      C      0.182840000000     0.825190000000     0.552480000000     0.337814   
C29      C      0.173620000000     0.142190000000     0.478020000000     0.339537   
C30      C      0.193870000000     0.221050000000     0.433320000000     0.349456   
C31      C      0.119460000000     0.200000000000     0.501010000000     0.350122   
C32      C      0.187000000000     0.204860000000     0.584220000000     0.341119   
C33      C      0.162540000000     0.955420000000     0.417200000000    -0.029718   
C34      C      0.190270000000     0.078200000000     0.492250000000    -0.0284289  
C35      C      0.163000000000     0.107380000000     0.431440000000    -0.0103394  
C36      C      0.196280000000     0.104840000000     0.485640000000    -0.0106477  
C37      C      0.189800000000     0.028460000000     0.422250000000    -0.0509949  
C38      C      0.162140000000     0.005770000000     0.485620000000    -0.0505874  
C39      C      0.177710000000     0.042480000000     0.453060000000     0.0641766  
C40      C      0.158430000000     0.080620000000     0.440510000000    -0.0286162  
C41      C      0.174370000000     0.991720000000     0.455020000000     0.0636379  
C42      C      0.194760000000     0.954280000000     0.466700000000    -0.060678   
C43      C      0.188160000000     0.003290000000     0.423030000000    -0.0536242  
C44      C      0.191590000000     0.927310000000     0.477190000000     0.113626   
C45      C      0.155740000000     0.929240000000     0.425810000000    -0.00657994 
C46      C      0.163700000000     0.030950000000     0.484710000000    -0.0542561  
C47      C      0.931420000000     0.816780000000     0.508020000000    -0.0287526  
C48      C      0.052410000000     0.851290000000     0.533780000000    -0.0283692  
C49      C      0.074630000000     0.812860000000     0.483250000000    -0.0106738  
C50      C      0.077880000000     0.845920000000     0.541430000000    -0.0105378  
C51      C      0.002630000000     0.817750000000     0.549270000000    -0.0506885  
C52      C      0.980740000000     0.850700000000     0.493230000000    -0.0505571  
C53      C      0.015800000000     0.831930000000     0.520450000000     0.0642     
C54      C      0.049300000000     0.819760000000     0.478240000000    -0.0283598  
C55      C      0.967550000000     0.836530000000     0.522100000000     0.0641299  
C56      C      0.933810000000     0.847130000000     0.564730000000    -0.0602289  
C57      C      0.978710000000     0.819940000000     0.550160000000    -0.0535295  
C58      C      0.908110000000     0.853490000000     0.561490000000     0.113431   
C59      C      0.906260000000     0.821970000000     0.498020000000    -0.00877296 
C60      C      0.004670000000     0.848450000000     0.492250000000    -0.0538477  
C61      C      0.794010000000     0.958380000000     0.496560000000    -0.0293109  
C62      C      0.833360000000     0.079790000000     0.434140000000    -0.0283276  
C63      C      0.800720000000     0.109110000000     0.484230000000    -0.0119098  
C64      C      0.829480000000     0.106140000000     0.420840000000    -0.0107752  
C65      C      0.797880000000     0.029350000000     0.436740000000    -0.0505174  
C66      C      0.830080000000     0.008170000000     0.493370000000    -0.050491   
C67      C      0.813420000000     0.044040000000     0.459690000000     0.0642367  
C68      C      0.805980000000     0.082650000000     0.494600000000    -0.0276487  
C69      C      0.814500000000     0.993470000000     0.470470000000     0.0640598  
C70      C      0.820690000000     0.954490000000     0.436280000000    -0.0604092  
C71      C      0.798330000000     0.004290000000     0.442000000000    -0.0534364  
C72      C      0.825600000000     0.927720000000     0.446120000000     0.113572   
C73      C      0.797870000000     0.932730000000     0.513250000000    -0.00703141 
C74      C      0.829590000000     0.033250000000     0.488150000000    -0.0537259  
C75      C      0.060060000000     0.222020000000     0.472130000000    -0.0296328  
C76      C      0.939130000000     0.191780000000     0.516830000000    -0.0284354  
C77      C      0.915340000000     0.222920000000     0.453880000000    -0.0107936  
C78      C      0.913780000000     0.197870000000     0.524480000000    -0.0107191  
C79      C      0.988730000000     0.226400000000     0.514120000000    -0.0510697  
C80      C      0.009880000000     0.187620000000     0.470870000000    -0.050991   
C81      C      0.975170000000     0.209160000000     0.492550000000     0.0638849  
C82      C      0.940600000000     0.215610000000     0.449490000000    -0.0283104  
C83      C      0.023460000000     0.204790000000     0.492680000000     0.0634237  
C84      C      0.056910000000     0.197960000000     0.538030000000    -0.060574   
C85      C      0.012660000000     0.224320000000     0.514270000000    -0.0536867  
C86      C      0.082400000000     0.190610000000     0.537090000000     0.11371    
C87      C      0.085210000000     0.215430000000     0.464450000000    -0.00751252 
C88      C      0.985930000000     0.189730000000     0.470670000000    -0.054269   
C89      C      0.733650000000     0.734970000000     0.875060000000    -0.0297347  
C90      C      0.773370000000     0.823280000000     0.710360000000    -0.0281561  
C91      C      0.806420000000     0.793640000000     0.662010000000    -0.0114792  
C92      C      0.791870000000     0.835430000000     0.681960000000    -0.0110275  
C93      C      0.774980000000     0.786740000000     0.803400000000    -0.0507119  
C94      C      0.730420000000     0.771780000000     0.782170000000    -0.0504257  
C95      C      0.766890000000     0.789690000000     0.760110000000     0.0645894  
C96      C      0.787340000000     0.783220000000     0.691190000000    -0.0276385  
C97      C      0.738570000000     0.768670000000     0.825420000000     0.0636877  
C98      C      0.718180000000     0.773780000000     0.894580000000    -0.0603772  
C99      C      0.761010000000     0.776350000000     0.835890000000    -0.0532299  
C100     C      0.699430000000     0.762880000000     0.924530000000     0.113363   
C101     C      0.715390000000     0.721090000000     0.900790000000    -0.00761625 
C102     C      0.744400000000     0.782210000000     0.749690000000    -0.0540791  
C103     C      0.747890000000     0.791630000000     0.389800000000    -0.0290125  
C104     C      0.724680000000     0.723000000000     0.185920000000    -0.0289724  
C105     C      0.675170000000     0.730190000000     0.178440000000    -0.00996065 
C106     C      0.710430000000     0.705690000000     0.157490000000    -0.00978474 
C107     C      0.725350000000     0.736620000000     0.297780000000    -0.0508906  
C108     C      0.747680000000     0.779780000000     0.276190000000    -0.0498963  
C109     C      0.723890000000     0.745610000000     0.254560000000     0.0644066  
C110     C      0.690900000000     0.746470000000     0.205820000000    -0.0286915  
C111     C      0.749030000000     0.770870000000     0.319520000000     0.064304   
C112     C      0.782160000000     0.770630000000     0.367420000000    -0.0599095  
C113     C      0.737830000000     0.749040000000     0.330050000000    -0.0536403  
C114     C      0.797890000000     0.786650000000     0.395860000000     0.112913   
C115     C      0.760960000000     0.809950000000     0.417820000000    -0.00831639 
C116     C      0.735250000000     0.767300000000     0.243860000000    -0.0535615  
C117     C      0.794850000000     0.250500000000     0.644630000000    -0.0298393  
C118     C      0.700700000000     0.292080000000     0.787550000000    -0.0274275  
C119     C      0.725350000000     0.320710000000     0.853470000000    -0.0108487  
C120     C      0.689600000000     0.296010000000     0.832890000000    -0.0109982  
C121     C      0.748630000000     0.260500000000     0.755330000000    -0.0508808  
C122     C      0.747610000000     0.285820000000     0.675260000000    -0.0502778  
C123     C      0.737150000000     0.282670000000     0.753110000000     0.0649854  
C124     C      0.734450000000     0.315160000000     0.806990000000    -0.027466   
C125     C      0.759160000000     0.263640000000     0.677500000000     0.0633554  
C126     C      0.759240000000     0.231870000000     0.622810000000    -0.0604465  
C127     C      0.759510000000     0.250970000000     0.717970000000    -0.0529327  
C128     C      0.768740000000     0.224140000000     0.577380000000     0.113133   
C129     C      0.806350000000     0.245440000000     0.600230000000    -0.00839153 
C130     C      0.736610000000     0.295300000000     0.712660000000    -0.0544894  
C131     C      0.736880000000     0.317450000000     0.126040000000    -0.0297415  
C132     C      0.780970000000     0.227510000000     0.282640000000    -0.0286076  
C133     C      0.810350000000     0.256150000000     0.340650000000    -0.0104525  
C134     C      0.799870000000     0.215010000000     0.309260000000    -0.0102909  
C135     C      0.781350000000     0.268620000000     0.197950000000    -0.0511918  
C136     C      0.735500000000     0.279080000000     0.218300000000    -0.050574   
C137     C      0.772890000000     0.263490000000     0.240330000000     0.0641029  
C138     C      0.791080000000     0.266860000000     0.312380000000    -0.0284998  
C139     C      0.743960000000     0.284200000000     0.175870000000     0.0635069  
C140     C      0.724350000000     0.277410000000     0.106750000000    -0.0602558  
C141     C      0.767070000000     0.278810000000     0.165870000000    -0.0536545  
C142     C      0.705110000000     0.286700000000     0.076330000000     0.113256   
C143     C      0.717940000000     0.329610000000     0.099300000000    -0.00827996 
C144     C      0.749760000000     0.268750000000     0.250340000000    -0.0541611  
C145     C      0.653180000000     0.460220000000     0.009460000000    -0.029521   
C146     C      0.651090000000     0.588840000000     0.951940000000    -0.0284854  
C147     C      0.646070000000     0.608150000000     0.041390000000    -0.0106717  
C148     C      0.642130000000     0.614600000000     0.958320000000    -0.0107093  
C149     C      0.629980000000     0.532580000000     0.983020000000    -0.0513609  
C150     C      0.674470000000     0.514480000000     0.971340000000    -0.0509496  
C151     C      0.648650000000     0.548520000000     0.982730000000     0.0637452  
C152     C      0.654880000000     0.582730000000     0.031170000000    -0.028448   
C153     C      0.655810000000     0.498480000000     0.972210000000     0.0633669  
C154     C      0.649050000000     0.461940000000     0.930230000000    -0.0601171  
C155     C      0.633440000000     0.507780000000     0.977830000000    -0.0538203  
C156     C      0.656600000000     0.435480000000     0.924070000000     0.112612   
C157     C      0.662480000000     0.434540000000     0.008670000000    -0.00872569 
C158     C      0.671000000000     0.539320000000     0.976530000000    -0.054398   
C159     C      0.286240000000     0.759240000000     0.812250000000    -0.0291061  
C160     C      0.195930000000     0.789030000000     0.652320000000    -0.0283078  
C161     C      0.217400000000     0.826960000000     0.599480000000    -0.0115575  
C162     C      0.180770000000     0.806530000000     0.626350000000    -0.0106774  
C163     C      0.232310000000     0.795890000000     0.740490000000    -0.0498449  
C164     C      0.252420000000     0.751730000000     0.717530000000    -0.0503473  
C165     C      0.230220000000     0.787250000000     0.697120000000     0.0645819  
C166     C      0.230890000000     0.808600000000     0.626960000000    -0.0277741  
C167     C      0.254540000000     0.760390000000     0.760930000000     0.0646592  
C168     C      0.251540000000     0.737130000000     0.828120000000    -0.0599887  
C169     C      0.244290000000     0.782620000000     0.772250000000    -0.0532464  
C170     C      0.264010000000     0.718940000000     0.858130000000     0.112611   
C171     C      0.301200000000     0.741960000000     0.838820000000    -0.00875719 
C172     C      0.240310000000     0.764960000000     0.685800000000    -0.0535069  
C173     C      0.271970000000     0.718580000000     0.160030000000    -0.0297709  
C174     C      0.199040000000     0.800960000000     0.289110000000    -0.0287138  
C175     C      0.190640000000     0.774100000000     0.370590000000    -0.01031    
C176     C      0.178540000000     0.807580000000     0.318470000000    -0.0102599  
C177     C      0.213780000000     0.750490000000     0.228790000000    -0.0503378  
C178     C      0.258920000000     0.767920000000     0.228000000000    -0.0503171  
C179     C      0.220760000000     0.766990000000     0.261200000000     0.0645119  
C180     C      0.210660000000     0.768750000000     0.339110000000    -0.0286103  
C181     C      0.251880000000     0.751540000000     0.195330000000     0.0641431  
C182     C      0.260480000000     0.753340000000     0.117360000000    -0.060194   
C183     C      0.229120000000     0.742800000000     0.196070000000    -0.0531681  
C184     C      0.279100000000     0.749020000000     0.082020000000     0.112364   
C185     C      0.291970000000     0.712890000000     0.129060000000    -0.00835541 
C186     C      0.243540000000     0.775630000000     0.260730000000    -0.0537613  
C187     C      0.430900000000     0.716230000000     0.031280000000    -0.0298162  
C188     C      0.552950000000     0.723670000000     0.967740000000    -0.0284965  
C189     C      0.573950000000     0.726360000000     0.055180000000    -0.0110628  
C190     C      0.577680000000     0.732780000000     0.972650000000    -0.0110419  
C191     C      0.499830000000     0.743210000000     0.007370000000    -0.0509591  
C192     C      0.483640000000     0.696500000000     0.990920000000    -0.0508389  
C193     C      0.515510000000     0.724180000000     0.003060000000     0.064139   
C194     C      0.549470000000     0.717310000000     0.047350000000    -0.0282217  
C195     C      0.467940000000     0.715530000000     0.995230000000     0.063519   
C196     C      0.433570000000     0.723210000000     0.952910000000    -0.0604718  
C197     C      0.476240000000     0.739010000000     0.003540000000    -0.0534615  
C198     C      0.408900000000     0.714470000000     0.944220000000     0.113109   
C199     C      0.406770000000     0.705600000000     0.028440000000    -0.0074688  
C200     C      0.507240000000     0.700690000000     0.994860000000    -0.0542769  
C201     C      0.253430000000     0.288280000000     0.868320000000    -0.0297687  
C202     C      0.230600000000     0.214760000000     0.670630000000    -0.0287815  
C203     C      0.182060000000     0.225320000000     0.656220000000    -0.0105159  
C204     C      0.216090000000     0.197740000000     0.642150000000    -0.0098637  
C205     C      0.228630000000     0.231990000000     0.780910000000    -0.050833   
C206     C      0.255450000000     0.271890000000     0.757290000000    -0.0497961  
C207     C      0.229310000000     0.239480000000     0.736660000000     0.0648908  
C208     C      0.197950000000     0.241230000000     0.684090000000    -0.0282622  
C209     C      0.254780000000     0.264390000000     0.801570000000     0.0637442  
C210     C      0.285840000000     0.262460000000     0.854390000000    -0.0603977  
C211     C      0.241220000000     0.244270000000     0.813190000000    -0.0531788  
C212     C      0.302170000000     0.277810000000     0.882870000000     0.112956   
C213     C      0.267370000000     0.306400000000     0.895160000000    -0.00737212 
C214     C      0.242840000000     0.259600000000     0.724990000000    -0.0540008  
C215     C      0.232450000000     0.233620000000     0.336960000000    -0.0298355  
C216     C      0.285050000000     0.323910000000     0.191440000000    -0.0281528  
C217     C      0.310020000000     0.289720000000     0.135760000000    -0.0116156  
C218     C      0.304800000000     0.332810000000     0.162090000000    -0.0108935  
C219     C      0.281610000000     0.281960000000     0.278040000000    -0.0507554  
C220     C      0.234390000000     0.279510000000     0.261260000000    -0.0504975  
C221     C      0.273060000000     0.290290000000     0.237530000000     0.064701   
C222     C      0.290010000000     0.282540000000     0.165830000000    -0.0275259  
C223     C      0.242980000000     0.270840000000     0.301550000000     0.0636563  
C224     C      0.227160000000     0.271210000000     0.375830000000    -0.0602687  
C225     C      0.266790000000     0.272260000000     0.309810000000    -0.0530649  
C226     C      0.208160000000     0.260710000000     0.405800000000     0.112972   
C227     C      0.212880000000     0.221260000000     0.361520000000    -0.0083951  
C228     C      0.249250000000     0.289130000000     0.229390000000    -0.0541504  
C229     C      0.438100000000     0.320220000000     0.962320000000    -0.0296063  
C230     C      0.559420000000     0.329330000000     0.027290000000    -0.0284464  
C231     C      0.581500000000     0.314420000000     0.944940000000    -0.0106479  
C232     C      0.584380000000     0.320590000000     0.027760000000    -0.010547   
C233     C      0.507510000000     0.302690000000     0.001030000000    -0.0506336  
C234     C      0.489480000000     0.349030000000     0.988820000000    -0.0502926  
C235     C      0.522430000000     0.322070000000     0.993260000000     0.064526   
C236     C      0.556670000000     0.323360000000     0.947550000000    -0.0283548  
C237     C      0.474530000000     0.329610000000     0.996170000000     0.0637093  
C238     C      0.439870000000     0.329030000000     0.040250000000    -0.0605101  
C239     C      0.483770000000     0.306340000000     0.002590000000    -0.0531122  
C240     C      0.414700000000     0.337510000000     0.042160000000     0.113712   
C241     C      0.413510000000     0.329340000000     0.957890000000    -0.00822193 
C242     C      0.513250000000     0.345390000000     0.987440000000    -0.0540933  
C243     C      0.327320000000     0.578070000000     0.920750000000    -0.0296377  
C244     C      0.301350000000     0.453310000000     0.986720000000    -0.0285729  
C245     C      0.329190000000     0.425270000000     0.924910000000    -0.0107904  
C246     C      0.295680000000     0.426720000000     0.978500000000    -0.0106989  
C247     C      0.301620000000     0.504410000000     0.921100000000    -0.0508361  
C248     C      0.329720000000     0.525830000000     0.985110000000    -0.0506103  
C249     C      0.314110000000     0.489770000000     0.950210000000     0.0641053  
C250     C      0.333560000000     0.451940000000     0.935210000000    -0.0284672  
C251     C      0.317120000000     0.540480000000     0.956170000000     0.0636364  
C252     C      0.296420000000     0.577020000000     0.973590000000    -0.0603711  
C253     C      0.303060000000     0.529540000000     0.923920000000    -0.0535264  
C254     C      0.299230000000     0.603770000000     0.986090000000     0.112414   
C255     C      0.333480000000     0.604260000000     0.930890000000    -0.0073222  
C256     C      0.328290000000     0.500680000000     0.982270000000    -0.054168   
Cd1      Cd     0.328900000000     0.340860000000     0.997870000000     0.511799   
Cd2      Cd     0.324130000000     0.692990000000     0.975070000000     0.516137   
Cd3      Cd     0.664470000000     0.345080000000     0.968260000000     0.512317   
Cd4      Cd     0.657130000000     0.699850000000     0.021140000000     0.509271   
Cd5      Cd     0.830790000000     0.195990000000     0.465190000000     0.509061   
Cd6      Cd     0.822170000000     0.844350000000     0.521770000000     0.51436    
Cd7      Cd     0.159040000000     0.840900000000     0.474060000000     0.50907    
Cd8      Cd     0.168570000000     0.192850000000     0.498090000000     0.511763   
H1       H      0.154110000000     0.041390000000     0.508760000000     0.046187   
H2       H      0.146820000000     0.965590000000     0.407460000000     0.0398769  
H3       H      0.203040000000     0.963080000000     0.495760000000     0.057979   
H4       H      0.172800000000     0.108990000000     0.399920000000     0.0462967  
H5       H      0.139100000000     0.929080000000     0.444060000000     0.0477986  
H6       H      0.206330000000     0.068260000000     0.500590000000     0.0410596  
H7       H      0.150730000000     0.072470000000     0.410270000000     0.0396711  
H8       H      0.202130000000     0.112410000000     0.517830000000     0.0521004  
H9       H      0.151420000000     0.997130000000     0.510320000000     0.051014   
H10      H      0.152550000000     0.920150000000     0.393520000000     0.0500722  
H11      H      0.200580000000     0.037100000000     0.397640000000     0.0505744  
H12      H      0.174840000000     0.956180000000     0.388900000000     0.0435021  
H13      H      0.146240000000     0.116700000000     0.426830000000     0.0500985  
H14      H      0.187650000000     0.925510000000     0.513110000000     0.0364012  
H15      H      0.178170000000     0.076480000000     0.520690000000     0.0436657  
H16      H      0.145790000000     0.078930000000     0.468060000000     0.0431466  
H17      H      0.197720000000     0.992900000000     0.398860000000     0.0468565  
H18      H      0.206620000000     0.956500000000     0.437960000000     0.064037   
H19      H      0.210910000000     0.106100000000     0.462010000000     0.047005   
H20      H      0.014460000000     0.859560000000     0.469570000000     0.045912   
H21      H      0.939570000000     0.809460000000     0.477430000000     0.0423103  
H22      H      0.943270000000     0.863480000000     0.576100000000     0.0586122  
H23      H      0.075810000000     0.796630000000     0.504780000000     0.0467672  
H24      H      0.905170000000     0.831330000000     0.465490000000     0.053202   
H25      H      0.044990000000     0.858450000000     0.565160000000     0.0405076  
H26      H      0.039540000000     0.803360000000     0.468150000000     0.0403942  
H27      H      0.086970000000     0.863250000000     0.547670000000     0.0502734  
H28      H      0.972400000000     0.863460000000     0.471360000000     0.051932   
H29      H      0.897080000000     0.804460000000     0.494260000000     0.057514   
H30      H      0.010960000000     0.804930000000     0.571040000000     0.0508567  
H31      H      0.932560000000     0.802640000000     0.534170000000     0.0450967  
H32      H      0.081540000000     0.807880000000     0.450130000000     0.0502848  
H33      H      0.906540000000     0.872230000000     0.548610000000     0.0367558  
H34      H      0.050760000000     0.865510000000     0.507900000000     0.0424905  
H35      H      0.047560000000     0.833490000000     0.451510000000     0.0428582  
H36      H      0.968970000000     0.808650000000     0.572610000000     0.0473595  
H37      H      0.936390000000     0.832810000000     0.590170000000     0.0642693  
H38      H      0.079550000000     0.834670000000     0.571750000000     0.046736   
H39      H      0.841760000000     0.044200000000     0.506350000000     0.0460339  
H40      H      0.788580000000     0.969770000000     0.525140000000     0.0412691  
H41      H      0.836170000000     0.962420000000     0.420140000000     0.0580874  
H42      H      0.784340000000     0.110020000000     0.465360000000     0.0512196  
H43      H      0.806780000000     0.933700000000     0.545800000000     0.0513765  
H44      H      0.838210000000     0.069400000000     0.403970000000     0.0404716  
H45      H      0.790380000000     0.074370000000     0.509650000000     0.0421163  
H46      H      0.846170000000     0.113950000000     0.409980000000     0.0500576  
H47      H      0.842570000000     0.000130000000     0.515430000000     0.0521836  
H48      H      0.780890000000     0.924140000000     0.519540000000     0.0512713  
H49      H      0.785320000000     0.037410000000     0.414820000000     0.0513143  
H50      H      0.779730000000     0.958420000000     0.471980000000     0.0438132  
H51      H      0.798070000000     0.118940000000     0.515960000000     0.0571708  
H52      H      0.844100000000     0.925900000000     0.454820000000     0.0378346  
H53      H      0.847920000000     0.078820000000     0.457980000000     0.0423256  
H54      H      0.820150000000     0.081720000000     0.519300000000     0.0434715  
H55      H      0.786040000000     0.993390000000     0.424020000000     0.0472267  
H56      H      0.806200000000     0.956090000000     0.412350000000     0.0640099  
H57      H      0.817630000000     0.106590000000     0.391990000000     0.0476481  
H58      H      0.975820000000     0.176180000000     0.453700000000     0.0451531  
H59      H      0.052160000000     0.226260000000     0.439480000000     0.0401223  
H60      H      0.047030000000     0.183330000000     0.554740000000     0.0580853  
H61      H      0.914480000000     0.241440000000     0.468030000000     0.0463325  
H62      H      0.086280000000     0.203120000000     0.435390000000     0.0472983  
H63      H      0.947350000000     0.188700000000     0.549620000000     0.0403423  
H64      H      0.949930000000     0.230320000000     0.431920000000     0.0394395  
H65      H      0.905030000000     0.181680000000     0.538300000000     0.050359   
H66      H      0.017920000000     0.172500000000     0.454180000000     0.0502128  
H67      H      0.094800000000     0.232110000000     0.455400000000     0.0519241  
H68      H      0.980690000000     0.241450000000     0.531030000000     0.0503174  
H69      H      0.059100000000     0.238600000000     0.492990000000     0.0441677  
H70      H      0.907620000000     0.223590000000     0.420230000000     0.0496768  
H71      H      0.083460000000     0.170880000000     0.530450000000     0.0350314  
H72      H      0.940400000000     0.174750000000     0.497340000000     0.0421346  
H73      H      0.941870000000     0.198900000000     0.429060000000     0.0419795  
H74      H      0.022690000000     0.237860000000     0.531410000000     0.0467924  
H75      H      0.054720000000     0.214690000000     0.558150000000     0.064285   
H76      H      0.912650000000     0.212460000000     0.549720000000     0.0468047  
H77      H      0.737720000000     0.784330000000     0.716490000000     0.0461965  
H78      H      0.739740000000     0.723340000000     0.847320000000     0.0402399  
H79      H      0.711740000000     0.791300000000     0.881390000000     0.0589304  
H80      H      0.822680000000     0.793830000000     0.681310000000     0.0509639  
H81      H      0.703490000000     0.712420000000     0.876750000000     0.0478271  
H82      H      0.769030000000     0.835560000000     0.738340000000     0.0417877  
H83      H      0.793360000000     0.765670000000     0.704910000000     0.0412237  
H84      H      0.784430000000     0.851940000000     0.666700000000     0.0533545  
H85      H      0.713210000000     0.765990000000     0.773630000000     0.0510783  
H86      H      0.723950000000     0.706230000000     0.919280000000     0.050529   
H87      H      0.792240000000     0.792420000000     0.811890000000     0.0518846  
H88      H      0.748600000000     0.738610000000     0.897110000000     0.0436622  
H89      H      0.808990000000     0.781480000000     0.633110000000     0.0547538  
H90      H      0.682400000000     0.766460000000     0.909200000000     0.0364468  
H91      H      0.757610000000     0.820590000000     0.690070000000     0.0437194  
H92      H      0.771870000000     0.779710000000     0.670460000000     0.0436531  
H93      H      0.767770000000     0.774190000000     0.869010000000     0.0471423  
H94      H      0.733870000000     0.777710000000     0.914460000000     0.0641755  
H95      H      0.806200000000     0.841180000000     0.703880000000     0.0510043  
H96      H      0.734440000000     0.774600000000     0.210660000000     0.048584   
H97      H      0.731710000000     0.800260000000     0.378090000000     0.0410932  
H98      H      0.792290000000     0.763970000000     0.338560000000     0.0597549  
H99      H      0.666760000000     0.717000000000     0.201010000000     0.0458539  
H100     H      0.760730000000     0.827670000000     0.400480000000     0.0514786  
H101     H      0.739700000000     0.712920000000     0.199300000000     0.0411986  
H102     H      0.680770000000     0.753920000000     0.234010000000     0.0408115  
H103     H      0.720800000000     0.700310000000     0.128120000000     0.0516858  
H104     H      0.756280000000     0.796470000000     0.267530000000     0.0538717  
H105     H      0.751560000000     0.812490000000     0.449600000000     0.0511154  
H106     H      0.716730000000     0.719940000000     0.306450000000     0.0501303  
H107     H      0.743110000000     0.775880000000     0.410840000000     0.0430911  
H108     H      0.661420000000     0.741490000000     0.163510000000     0.0533267  
H109     H      0.808700000000     0.797830000000     0.373400000000     0.0399005  
H110     H      0.731260000000     0.737960000000     0.164760000000     0.0460479  
H111     H      0.696800000000     0.761840000000     0.184920000000     0.0465104  
H112     H      0.738680000000     0.741640000000     0.363160000000     0.0465067  
H113     H      0.776590000000     0.754540000000     0.386840000000     0.0639045  
H114     H      0.706860000000     0.689110000000     0.177070000000     0.0459284  
H115     H      0.727670000000     0.312370000000     0.710010000000     0.0463066  
H116     H      0.802850000000     0.266970000000     0.659140000000     0.040018   
H117     H      0.740340000000     0.234570000000     0.619610000000     0.0594105  
H118     H      0.734640000000     0.309170000000     0.877700000000     0.0519744  
H119     H      0.807100000000     0.262550000000     0.581000000000     0.0461416  
H120     H      0.694390000000     0.274590000000     0.774010000000     0.0420108  
H121     H      0.753580000000     0.314980000000     0.808220000000     0.0404425  
H122     H      0.670910000000     0.299320000000     0.828140000000     0.0536658  
H123     H      0.747070000000     0.295710000000     0.644350000000     0.050562   
H124     H      0.824410000000     0.239840000000     0.606600000000     0.0508502  
H125     H      0.749040000000     0.250530000000     0.786160000000     0.0528568  
H126     H      0.798220000000     0.235110000000     0.667470000000     0.044026   
H127     H      0.729440000000     0.339820000000     0.861670000000     0.0515815  
H128     H      0.760440000000     0.235360000000     0.551390000000     0.0344463  
H129     H      0.695240000000     0.306710000000     0.764550000000     0.0434516  
H130     H      0.729060000000     0.329770000000     0.783900000000     0.0423903  
H131     H      0.768130000000     0.233720000000     0.720670000000     0.0472102  
H132     H      0.762040000000     0.217130000000     0.647360000000     0.0646088  
H133     H      0.691330000000     0.279130000000     0.852560000000     0.0540576  
H134     H      0.742740000000     0.264730000000     0.282710000000     0.0463339  
H135     H      0.741700000000     0.329670000000     0.153810000000     0.0398412  
H136     H      0.719030000000     0.259500000000     0.120090000000     0.0591625  
H137     H      0.827010000000     0.259110000000     0.323360000000     0.0458024  
H138     H      0.704820000000     0.336850000000     0.122620000000     0.0472124  
H139     H      0.778120000000     0.217020000000     0.251650000000     0.0408756  
H140     H      0.795820000000     0.285730000000     0.303520000000     0.0395466  
H141     H      0.793490000000     0.196980000000     0.319880000000     0.0512949  
H142     H      0.717730000000     0.282950000000     0.226390000000     0.0510595  
H143     H      0.725510000000     0.345380000000     0.081710000000     0.0508444  
H144     H      0.799050000000     0.264500000000     0.189710000000     0.0500056  
H145     H      0.752290000000     0.315000000000     0.104570000000     0.0431418  
H146     H      0.811040000000     0.266070000000     0.372650000000     0.0500559  
H147     H      0.688260000000     0.282720000000     0.092170000000     0.0358396  
H148     H      0.764680000000     0.227390000000     0.302080000000     0.0442603  
H149     H      0.774940000000     0.267420000000     0.332260000000     0.0428604  
H150     H      0.774040000000     0.282340000000     0.133270000000     0.0461996  
H151     H      0.740400000000     0.274630000000     0.087170000000     0.0638311  
H152     H      0.814960000000     0.212060000000     0.287260000000     0.0461834  
H153     H      0.685710000000     0.551270000000     0.976250000000     0.0455209  
H154     H      0.660300000000     0.469510000000     0.039150000000     0.0395181  
H155     H      0.653790000000     0.472170000000     0.899820000000     0.0589007  
H156     H      0.627630000000     0.606940000000     0.050960000000     0.0447169  
H157     H      0.681400000000     0.435160000000     0.013960000000     0.047118   
H158     H      0.643560000000     0.581400000000     0.920930000000     0.0399945  
H159     H      0.650210000000     0.570720000000     0.059330000000     0.0391573  
H160     H      0.649100000000     0.626140000000     0.931320000000     0.0501342  
H161     H      0.691770000000     0.507620000000     0.967180000000     0.0504018  
H162     H      0.654940000000     0.424600000000     0.037240000000     0.050918   
H163     H      0.612710000000     0.539400000000     0.987850000000     0.0494842  
H164     H      0.634110000000     0.459670000000     0.012900000000     0.0431957  
H165     H      0.655660000000     0.615330000000     0.070380000000     0.0498349  
H166     H      0.673920000000     0.435290000000     0.908470000000     0.0349893  
H167     H      0.670130000000     0.589310000000     0.948030000000     0.0425978  
H168     H      0.673970000000     0.583140000000     0.028400000000     0.0424622  
H169     H      0.618700000000     0.495870000000     0.978860000000     0.0460209  
H170     H      0.629990000000     0.462780000000     0.933730000000     0.0633359  
H171     H      0.623090000000     0.614420000000     0.955070000000     0.044899   
H172     H      0.238730000000     0.757780000000     0.652600000000     0.046135   
H173     H      0.297000000000     0.767330000000     0.785560000000     0.0433535  
H174     H      0.236390000000     0.727930000000     0.813190000000     0.0607064  
H175     H      0.216380000000     0.844190000000     0.618310000000     0.0504611  
H176     H      0.310680000000     0.730060000000     0.815390000000     0.0512363  
H177     H      0.186200000000     0.782920000000     0.682060000000     0.0411153  
H178     H      0.247250000000     0.817170000000     0.637830000000     0.0420378  
H179     H      0.165670000000     0.796440000000     0.613440000000     0.0505998  
H180     H      0.260070000000     0.734600000000     0.708420000000     0.0518282  
H181     H      0.314280000000     0.752790000000     0.856900000000     0.0610061  
H182     H      0.224490000000     0.812920000000     0.749710000000     0.0520375  
H183     H      0.280280000000     0.774100000000     0.834340000000     0.0484388  
H184     H      0.227060000000     0.830610000000     0.568380000000     0.0558012  
H185     H      0.264950000000     0.701290000000     0.840650000000     0.0373207  
H186     H      0.199720000000     0.772900000000     0.631470000000     0.0433079  
H187     H      0.235210000000     0.792760000000     0.605800000000     0.0431042  
H188     H      0.245450000000     0.789660000000     0.805590000000     0.0494244  
H189     H      0.245010000000     0.752500000000     0.848420000000     0.0679592  
H190     H      0.174250000000     0.820620000000     0.649410000000     0.0472919  
H191     H      0.249340000000     0.788470000000     0.285330000000     0.0471589  
H192     H      0.276430000000     0.711950000000     0.193750000000     0.04139    
H193     H      0.256870000000     0.773080000000     0.118870000000     0.0609864  
H194     H      0.176470000000     0.761210000000     0.363400000000     0.0459541  
H195     H      0.308140000000     0.719450000000     0.144570000000     0.0467747  
H196     H      0.194580000000     0.805330000000     0.254180000000     0.0418696  
H197     H      0.214820000000     0.749170000000     0.341320000000     0.0403651  
H198     H      0.175930000000     0.827460000000     0.317020000000     0.0524181  
H199     H      0.276310000000     0.774890000000     0.227770000000     0.0515863  
H200     H      0.293400000000     0.692920000000     0.126120000000     0.0557189  
H201     H      0.196310000000     0.743760000000     0.228680000000     0.0516999  
H202     H      0.256430000000     0.708620000000     0.148590000000     0.0480666  
H203     H      0.196410000000     0.770860000000     0.405160000000     0.0505929  
H204     H      0.292960000000     0.762620000000     0.086630000000     0.035333   
H205     H      0.214140000000     0.812140000000     0.298800000000     0.0454119  
H206     H      0.226030000000     0.779190000000     0.349910000000     0.0441258  
H207     H      0.223130000000     0.730250000000     0.171150000000     0.0492481  
H208     H      0.244310000000     0.744060000000     0.107280000000     0.0677702  
H209     H      0.162880000000     0.798830000000     0.304780000000     0.0463975  
H210     H      0.519000000000     0.685640000000     0.991650000000     0.0452071  
H211     H      0.439640000000     0.708270000000     0.060640000000     0.0399556  
H212     H      0.443980000000     0.719830000000     0.922550000000     0.0586758  
H213     H      0.573150000000     0.745750000000     0.064670000000     0.0470113  
H214     H      0.407860000000     0.685790000000     0.034230000000     0.0466155  
H215     H      0.545050000000     0.732770000000     0.938640000000     0.0410492  
H216     H      0.538970000000     0.721600000000     0.077190000000     0.0397344  
H217     H      0.587780000000     0.727010000000     0.943210000000     0.0514842  
H218     H      0.477520000000     0.678350000000     0.984550000000     0.0502177  
H219     H      0.396230000000     0.713220000000     0.055860000000     0.0505879  
H220     H      0.505940000000     0.761340000000     0.013880000000     0.0510241  
H221     H      0.429680000000     0.736110000000     0.036570000000     0.0441266  
H222     H      0.581470000000     0.716250000000     0.083460000000     0.0511989  
H223     H      0.409750000000     0.697420000000     0.924770000000     0.0358916  
H224     H      0.553260000000     0.703880000000     0.961250000000     0.0427921  
H225     H      0.549780000000     0.697330000000     0.043090000000     0.0425891  
H226     H      0.464510000000     0.754060000000     0.007090000000     0.0472202  
H227     H      0.433570000000     0.743080000000     0.958920000000     0.0646089  
H228     H      0.577420000000     0.752860000000     0.973210000000     0.0478223  
H229     H      0.243640000000     0.265770000000     0.691020000000     0.0485142  
H230     H      0.238690000000     0.298010000000     0.853020000000     0.0404305  
H231     H      0.296200000000     0.253320000000     0.828230000000     0.0589546  
H232     H      0.172130000000     0.213370000000     0.678810000000     0.0514471  
H233     H      0.269360000000     0.323200000000     0.875320000000     0.0471457  
H234     H      0.244400000000     0.203990000000     0.686780000000     0.0417288  
H235     H      0.187480000000     0.250170000000     0.710260000000     0.0424069  
H236     H      0.227010000000     0.190580000000     0.614880000000     0.0531     
H237     H      0.265790000000     0.287320000000     0.747850000000     0.0519799  
H238     H      0.257360000000     0.311360000000     0.925260000000     0.0499357  
H239     H      0.218280000000     0.216560000000     0.790340000000     0.0513178  
H240     H      0.246310000000     0.274240000000     0.890920000000     0.0435231  
H241     H      0.169590000000     0.237110000000     0.638630000000     0.0582684  
H242     H      0.315350000000     0.286020000000     0.860780000000     0.0368268  
H243     H      0.238870000000     0.228500000000     0.648920000000     0.0464573  
H244     H      0.205540000000     0.255530000000     0.662650000000     0.0472602  
H245     H      0.240350000000     0.238080000000     0.847130000000     0.0468962  
H246     H      0.277800000000     0.248090000000     0.875080000000     0.0641737  
H247     H      0.210610000000     0.182180000000     0.662880000000     0.0476795  
H248     H      0.242230000000     0.295240000000     0.198180000000     0.0461648  
H249     H      0.234150000000     0.224990000000     0.303780000000     0.0403076  
H250     H      0.223990000000     0.290920000000     0.371780000000     0.0596345  
H251     H      0.326400000000     0.285780000000     0.153270000000     0.0533308  
H252     H      0.197630000000     0.220500000000     0.339370000000     0.0466564  
H253     H      0.284120000000     0.335630000000     0.221340000000     0.0414492  
H254     H      0.292680000000     0.263530000000     0.176660000000     0.0418796  
H255     H      0.300580000000     0.351220000000     0.149870000000     0.0527989  
H256     H      0.216180000000     0.278360000000     0.254260000000     0.0507379  
H257     H      0.218120000000     0.202290000000     0.368260000000     0.0509194  
H258     H      0.299900000000     0.282570000000     0.284600000000     0.0520974  
H259     H      0.248830000000     0.230670000000     0.355280000000     0.0446149  
H260     H      0.309510000000     0.278340000000     0.105440000000     0.0570989  
H261     H      0.191410000000     0.268640000000     0.395690000000     0.0352254  
H262     H      0.268580000000     0.325710000000     0.172980000000     0.0433514  
H263     H      0.273680000000     0.283400000000     0.146680000000     0.0442266  
H264     H      0.273980000000     0.265440000000     0.340370000000     0.0473376  
H265     H      0.244150000000     0.269030000000     0.392330000000     0.0640814  
H266     H      0.320580000000     0.334200000000     0.182650000000     0.0513788  
H267     H      0.524420000000     0.360690000000     0.981600000000     0.0468381  
H268     H      0.446870000000     0.322560000000     0.929790000000     0.0414467  
H269     H      0.449650000000     0.338710000000     0.066500000000     0.0590045  
H270     H      0.581380000000     0.294330000000     0.945040000000     0.0479897  
H271     H      0.413820000000     0.347140000000     0.940820000000     0.0476149  
H272     H      0.551420000000     0.324800000000     0.059750000000     0.0410455  
H273     H      0.546610000000     0.314410000000     0.920850000000     0.0416503  
H274     H      0.593990000000     0.330920000000     0.053320000000     0.0515869  
H275     H      0.482650000000     0.367030000000     0.983990000000     0.0508323  
H276     H      0.403950000000     0.316680000000     0.936010000000     0.0555633  
H277     H      0.514340000000     0.284680000000     0.005700000000     0.0515864  
H278     H      0.437810000000     0.300560000000     0.970160000000     0.0461165  
H279     H      0.589090000000     0.320420000000     0.912980000000     0.0547974  
H280     H      0.414490000000     0.357370000000     0.047730000000     0.0346008  
H281     H      0.559150000000     0.349330000000     0.023340000000     0.0441592  
H282     H      0.556360000000     0.343210000000     0.941590000000     0.04566    
H283     H      0.472650000000     0.291010000000     0.008540000000     0.0479287  
H284     H      0.440820000000     0.309340000000     0.047730000000     0.0652695  
H285     H      0.584600000000     0.301230000000     0.037520000000     0.0477946  
H286     H      0.338100000000     0.489780000000     0.005190000000     0.0461268  
H287     H      0.343100000000     0.568710000000     0.908790000000     0.040235   
H288     H      0.289190000000     0.567280000000     0.002710000000     0.0588066  
H289     H      0.319170000000     0.424030000000     0.893660000000     0.0454892  
H290     H      0.350130000000     0.604590000000     0.948960000000     0.0469686  
H291     H      0.285120000000     0.462940000000     0.995140000000     0.0409979  
H292     H      0.341250000000     0.460550000000     0.905370000000     0.0398635  
H293     H      0.289310000000     0.418640000000     0.009910000000     0.0517483  
H294     H      0.340560000000     0.533980000000     0.010130000000     0.0508665  
H295     H      0.336340000000     0.613930000000     0.899050000000     0.0516857  
H296     H      0.290640000000     0.496260000000     0.896310000000     0.0505929  
H297     H      0.314400000000     0.577560000000     0.893550000000     0.0443016  
H298     H      0.345990000000     0.416180000000     0.919300000000     0.0502707  
H299     H      0.305120000000     0.604820000000     0.021070000000     0.0366551  
H300     H      0.313190000000     0.454730000000     0.015560000000     0.0440418  
H301     H      0.346150000000     0.453320000000     0.962840000000     0.0431803  
H302     H      0.293100000000     0.540400000000     0.901170000000     0.0472537  
H303     H      0.283840000000     0.575200000000     0.945990000000     0.0649786  
H304     H      0.281540000000     0.425670000000     0.953840000000     0.0457981  
N1       N      0.172850000000     0.915460000000     0.451760000000    -0.158962   
N2       N      0.172550000000     0.965740000000     0.457500000000    -0.107722   
N3       N      0.180130000000     0.068400000000     0.451440000000    -0.112432   
N4       N      0.176650000000     0.118420000000     0.467310000000    -0.152474   
N5       N      0.894850000000     0.837190000000     0.531850000000    -0.157663   
N6       N      0.942830000000     0.839160000000     0.521730000000    -0.107761   
N7       N      0.040450000000     0.829050000000     0.520570000000    -0.112411   
N8       N      0.087980000000     0.832580000000     0.503780000000    -0.153342   
N9       N      0.811710000000     0.917500000000     0.482980000000    -0.158321   
N10      N      0.815390000000     0.967650000000     0.477210000000    -0.107297   
N11      N      0.812200000000     0.069870000000     0.453620000000    -0.112216   
N12      N      0.819100000000     0.120220000000     0.457290000000    -0.15165    
N13      N      0.096140000000     0.203400000000     0.502780000000    -0.159198   
N14      N      0.048130000000     0.201670000000     0.493050000000    -0.108194   
N15      N      0.950500000000     0.211870000000     0.493700000000    -0.112519   
N16      N      0.902650000000     0.206350000000     0.483420000000    -0.153048   
N17      N      0.701720000000     0.736380000000     0.931240000000    -0.159391   
N18      N      0.723730000000     0.757430000000     0.857860000000    -0.107995   
N19      N      0.782040000000     0.800120000000     0.727390000000    -0.1121     
N20      N      0.801010000000     0.818590000000     0.648380000000    -0.151029   
N21      N      0.785180000000     0.803140000000     0.426130000000    -0.158432   
N22      N      0.762100000000     0.784260000000     0.351960000000    -0.1074     
N23      N      0.710500000000     0.732400000000     0.222450000000    -0.112372   
N24      N      0.688330000000     0.716730000000     0.144650000000    -0.151864   
N25      N      0.794080000000     0.227130000000     0.573480000000    -0.159766   
N26      N      0.770120000000     0.254290000000     0.638040000000    -0.108427   
N27      N      0.725790000000     0.291560000000     0.792380000000    -0.11148    
N28      N      0.700430000000     0.315970000000     0.857810000000    -0.150171   
N29      N      0.706390000000     0.313120000000     0.067800000000    -0.159792   
N30      N      0.728510000000     0.294290000000     0.143310000000    -0.108283   
N31      N      0.788070000000     0.252320000000     0.272020000000    -0.112562   
N32      N      0.807130000000     0.229940000000     0.347250000000    -0.15308    
N33      N      0.657910000000     0.421840000000     0.966450000000    -0.159833   
N34      N      0.660200000000     0.472840000000     0.968960000000    -0.108613   
N35      N      0.644350000000     0.573890000000     0.990020000000    -0.11272    
N36      N      0.648100000000     0.624160000000     0.002500000000    -0.153497   
N37      N      0.287800000000     0.726570000000     0.869500000000    -0.156417   
N38      N      0.266830000000     0.745980000000     0.793020000000    -0.108125   
N39      N      0.217220000000     0.801300000000     0.665690000000    -0.112196   
N40      N      0.193800000000     0.818450000000     0.590510000000    -0.151621   
N41      N      0.289530000000     0.724530000000     0.085210000000    -0.15787    
N42      N      0.267990000000     0.744750000000     0.160990000000    -0.108436   
N43      N      0.204130000000     0.775040000000     0.293510000000    -0.112321   
N44      N      0.182030000000     0.798920000000     0.364160000000    -0.153057   
N45      N      0.395450000000     0.709730000000     0.985250000000    -0.159221   
N46      N      0.443680000000     0.710470000000     0.990720000000    -0.108201   
N47      N      0.539710000000     0.729230000000     0.008110000000    -0.11254    
N48      N      0.587790000000     0.724050000000     0.014430000000    -0.152446   
N49      N      0.290510000000     0.297590000000     0.907550000000    -0.159255   
N50      N      0.268070000000     0.277570000000     0.833960000000    -0.107866   
N51      N      0.216000000000     0.226300000000     0.704390000000    -0.112084   
N52      N      0.195400000000     0.210100000000     0.625350000000    -0.150591   
N53      N      0.206280000000     0.233950000000     0.402770000000    -0.160235   
N54      N      0.227300000000     0.259420000000     0.332270000000    -0.108493   
N55      N      0.289160000000     0.298670000000     0.204520000000    -0.112086   
N56      N      0.309210000000     0.315750000000     0.125490000000    -0.15041    
N57      N      0.401630000000     0.332280000000     0.000940000000    -0.158569   
N58      N      0.450040000000     0.334060000000     0.996740000000    -0.108307   
N59      N      0.546830000000     0.317410000000     0.991140000000    -0.11229    
N60      N      0.594830000000     0.322920000000     0.983430000000    -0.151693   
N61      N      0.316050000000     0.616990000000     0.957980000000    -0.158716   
N62      N      0.318590000000     0.566410000000     0.960980000000    -0.108047   
N63      N      0.311770000000     0.463890000000     0.946740000000    -0.112564   
N64      N      0.315850000000     0.413750000000     0.960740000000    -0.153051   
O1       O      0.366590000000     0.330930000000     0.965460000000    -0.240399   
O2       O      0.336340000000     0.378270000000     0.955840000000    -0.253866   
O3       O      0.316570000000     0.346240000000     0.075560000000    -0.242279   
O4       O      0.324050000000     0.308000000000     0.943560000000    -0.225296   
O5       O      0.293860000000     0.328930000000     0.957410000000    -0.254057   
O6       O      0.320180000000     0.309590000000     0.053110000000    -0.242175   
O7       O      0.367030000000     0.343040000000     0.032990000000    -0.231482   
O8       O      0.308250000000     0.379700000000     0.001960000000    -0.24655    
O9       O      0.309850000000     0.693560000000     0.052130000000    -0.239591   
O10      O      0.319580000000     0.722080000000     0.914190000000    -0.233148   
O11      O      0.307480000000     0.653190000000     0.992060000000    -0.224385   
O12      O      0.360430000000     0.699570000000     0.016060000000    -0.252963   
O13      O      0.362330000000     0.702790000000     0.945370000000    -0.226693   
O14      O      0.333090000000     0.653430000000     0.940940000000    -0.251506   
O15      O      0.304600000000     0.725890000000     0.014440000000    -0.223808   
O16      O      0.291400000000     0.697690000000     0.924230000000    -0.220698   
O17      O      0.629600000000     0.335520000000     0.011540000000    -0.248614   
O18      O      0.661630000000     0.385310000000     0.002180000000    -0.25021    
O19      O      0.668100000000     0.320270000000     0.901110000000    -0.239274   
O20      O      0.678180000000     0.311320000000     0.014200000000    -0.231621   
O21      O      0.693600000000     0.345780000000     0.027420000000    -0.248199   
O22      O      0.697720000000     0.341670000000     0.917670000000    -0.246683   
O23      O      0.626640000000     0.331750000000     0.940990000000    -0.240569   
O24      O      0.661340000000     0.384890000000     0.931250000000    -0.230887   
O25      O      0.671920000000     0.735740000000     0.981880000000    -0.2311     
O26      O      0.659190000000     0.719880000000     0.093600000000    -0.242557   
O27      O      0.650960000000     0.663080000000     0.976270000000    -0.251443   
O28      O      0.622840000000     0.715610000000     0.982210000000    -0.247658   
O29      O      0.619130000000     0.709300000000     0.052040000000    -0.246715   
O30      O      0.654900000000     0.657490000000     0.046160000000    -0.252844   
O31      O      0.688420000000     0.702130000000     0.966260000000    -0.250309   
O32      O      0.688280000000     0.697790000000     0.076650000000    -0.247428   
O33      O      0.813030000000     0.157610000000     0.488610000000    -0.239727   
O34      O      0.869010000000     0.211580000000     0.444530000000    -0.251504   
O35      O      0.795730000000     0.205750000000     0.507790000000    -0.228541   
O36      O      0.813780000000     0.196500000000     0.390570000000    -0.250156   
O37      O      0.822330000000     0.231210000000     0.417620000000    -0.250565   
O38      O      0.827350000000     0.219290000000     0.534450000000    -0.251309   
O39      O      0.837430000000     0.155090000000     0.435320000000    -0.249147   
O40      O      0.867740000000     0.190110000000     0.503730000000    -0.249527   
O41      O      0.860380000000     0.855090000000     0.551150000000    -0.231116   
O42      O      0.804210000000     0.884540000000     0.527270000000    -0.244096   
O43      O      0.816590000000     0.813090000000     0.578970000000    -0.245993   
O44      O      0.818670000000     0.815610000000     0.459960000000    -0.222085   
O45      O      0.786950000000     0.830760000000     0.483250000000    -0.251099   
O46      O      0.804980000000     0.848660000000     0.596270000000    -0.242064   
O47      O      0.859660000000     0.826740000000     0.502640000000    -0.234986   
O48      O      0.828900000000     0.880170000000     0.474930000000    -0.233273   
O49      O      0.166240000000     0.833240000000     0.394660000000    -0.249189   
O50      O      0.192920000000     0.837160000000     0.522420000000    -0.236874   
O51      O      0.120640000000     0.822630000000     0.464560000000    -0.252417   
O52      O      0.180270000000     0.878840000000     0.485160000000    -0.229339   
O53      O      0.152160000000     0.880610000000     0.439330000000    -0.249333   
O54      O      0.123060000000     0.851150000000     0.512620000000    -0.25134    
O55      O      0.176060000000     0.804740000000     0.438800000000    -0.252148   
O56      O      0.161860000000     0.820310000000     0.545800000000    -0.249945   
O57      O      0.191680000000     0.198380000000     0.430550000000    -0.254802   
O58      O      0.168390000000     0.213830000000     0.570160000000    -0.238026   
O59      O      0.158610000000     0.155160000000     0.459170000000    -0.249915   
O60      O      0.129820000000     0.186180000000     0.527740000000    -0.231056   
O61      O      0.131900000000     0.210190000000     0.471990000000    -0.248748   
O62      O      0.186040000000     0.152660000000     0.506580000000    -0.243492   
O63      O      0.183600000000     0.230890000000     0.465540000000    -0.22912    
O64      O      0.197160000000     0.190430000000     0.558240000000    -0.242501   


