data_structure

_audit_creation_method RASPA-1.0
_audit_creation_date 2023-5-25
_audit_author_name 'Poobodin Mano'

_cell_length_a    37.8936
_cell_length_b    53.3906
_cell_length_c    42.033
_cell_angle_alpha 90
_cell_angle_beta  90
_cell_angle_gamma 90
_cell_volume      85039.6

_symmetry_cell_setting          triclinic
_symmetry_space_group_name_Hall 'P 1'
_symmetry_space_group_name_H-M  'P 1'
_symmetry_Int_Tables_number     1

_symmetry_equiv_pos_as_xyz 'x,y,z'

loop_
_atom_site_label
_atom_site_type_symbol
_atom_site_fract_x
_atom_site_fract_y
_atom_site_fract_z
_atom_site_charge
C1       C      0.012880000000     0.338840000000     0.928140000000     0.339705   
C2       C      0.934510000000     0.328680000000     0.845320000000     0.339148   
C3       C      0.008740000000     0.263970000000     0.854600000000     0.339428   
C4       C      0.935890000000     0.274630000000     0.941630000000     0.33815    
C5       C      0.176480000000     0.498530000000     0.144010000000     0.339414   
C6       C      0.258130000000     0.510880000000     0.224470000000     0.340321   
C7       C      0.251960000000     0.562770000000     0.125570000000     0.338634   
C8       C      0.182840000000     0.574070000000     0.215710000000     0.340761   
C9       C      0.517180000000     0.820180000000     0.964510000000     0.340273   
C10      C      0.507120000000     0.755410000000     0.887510000000     0.339919   
C11      C      0.435030000000     0.752910000000     0.976470000000     0.341046   
C12      C      0.418770000000     0.816900000000     0.898400000000     0.340808   
C13      C      0.668130000000     0.024480000000     0.115930000000     0.340013   
C14      C      0.755260000000     0.088090000000     0.100750000000     0.33792    
C15      C      0.677280000000     0.099260000000     0.181420000000     0.341153   
C16      C      0.758690000000     0.029710000000     0.186130000000     0.339705   
C17      C      0.428060000000     0.320460000000     0.385800000000     0.338647   
C18      C      0.500070000000     0.252340000000     0.396590000000     0.338298   
C19      C      0.498450000000     0.325400000000     0.473160000000     0.338773   
C20      C      0.423080000000     0.259660000000     0.477930000000     0.340906   
C21      C      0.763740000000     0.521700000000     0.688210000000     0.338578   
C22      C      0.689100000000     0.586480000000     0.694660000000     0.338908   
C23      C      0.759120000000     0.589830000000     0.605750000000     0.339568   
C24      C      0.685230000000     0.522880000000     0.605690000000     0.340585   
C25      C      0.998600000000     0.772520000000     0.350230000000     0.341642   
C26      C      0.919540000000     0.837840000000     0.354570000000     0.34055    
C27      C      0.928040000000     0.780570000000     0.441980000000     0.338802   
C28      C      0.013480000000     0.842460000000     0.424660000000     0.339795   
C29      C      0.192790000000     0.067600000000     0.714720000000     0.343137   
C30      C      0.270960000000     0.002110000000     0.711190000000     0.339871   
C31      C      0.174670000000     0.998340000000     0.643100000000     0.339576   
C32      C      0.263480000000     0.058470000000     0.622580000000     0.340983   
C33      C      0.071570000000     0.864490000000     0.488320000000    -0.0238228  
C34      C      0.113900000000     0.977080000000     0.581670000000    -0.0291003  
C35      C      0.153990000000     0.955010000000     0.633800000000    -0.0102407  
C36      C      0.119650000000     0.991850000000     0.612450000000    -0.0100297  
C37      C      0.123740000000     0.934970000000     0.533070000000    -0.0540262  
C38      C      0.061760000000     0.906650000000     0.536660000000    -0.0555483  
C39      C      0.103370000000     0.935410000000     0.561100000000     0.063684   
C40      C      0.147190000000     0.941490000000     0.602300000000    -0.0288754  
C41      C      0.082140000000     0.906190000000     0.508630000000     0.0659031  
C42      C      0.038330000000     0.899920000000     0.467480000000    -0.00276415 
C43      C      0.113090000000     0.920460000000     0.507100000000    -0.0500208  
C44      C      0.030830000000     0.886210000000     0.435970000000    -0.0585302  
C45      C      0.066550000000     0.849600000000     0.457590000000    -0.0108503  
C46      C      0.072400000000     0.921160000000     0.562610000000    -0.0513922  
C47      C      0.054230000000     0.895740000000     0.409510000000     0.314321   
C48      C      0.828190000000     0.632980000000     0.577060000000    -0.0236979  
C49      C      0.856840000000     0.742220000000     0.474160000000    -0.0286793  
C50      C      0.928800000000     0.755770000000     0.491680000000    -0.0108352  
C51      C      0.871120000000     0.768250000000     0.466120000000    -0.0107081  
C52      C      0.841950000000     0.709560000000     0.544200000000    -0.0512838  
C53      C      0.842340000000     0.665870000000     0.507470000000    -0.0507866  
C54      C      0.858080000000     0.709740000000     0.514230000000     0.0631861  
C55      C      0.912540000000     0.730140000000     0.498860000000    -0.0286419  
C56      C      0.826190000000     0.665700000000     0.537430000000     0.0661083  
C57      C      0.772070000000     0.645270000000     0.553860000000    -0.00312179 
C58      C      0.826130000000     0.687760000000     0.555820000000    -0.0558468  
C59      C      0.755450000000     0.619550000000     0.560890000000    -0.058021   
C60      C      0.814860000000     0.606590000000     0.584350000000    -0.0106894  
C61      C      0.858220000000     0.687660000000     0.495880000000    -0.0539598  
C62      C      0.752730000000     0.603950000000     0.531000000000     0.315938   
C63      C      0.331390000000     0.100840000000     0.595360000000    -0.0240612  
C64      C      0.354340000000     0.216070000000     0.502020000000    -0.0292248  
C65      C      0.422210000000     0.233260000000     0.526290000000    -0.0096277  
C66      C      0.365800000000     0.243280000000     0.497070000000    -0.00966865 
C67      C      0.361340000000     0.160720000000     0.520030000000    -0.0541043  
C68      C      0.323780000000     0.155870000000     0.576990000000    -0.055314   
C69      C      0.356260000000     0.181810000000     0.539660000000     0.0640909  
C70      C      0.408940000000     0.206380000000     0.530240000000    -0.0291743  
C71      C      0.328890000000     0.134760000000     0.557400000000     0.0661798  
C72      C      0.276460000000     0.110050000000     0.567240000000    -0.00249973 
C73      C      0.347700000000     0.137430000000     0.528930000000    -0.0495795  
C74      C      0.262620000000     0.083270000000     0.572790000000    -0.0584142  
C75      C      0.320250000000     0.073670000000     0.600880000000    -0.0107079  
C76      C      0.337400000000     0.179150000000     0.568090000000    -0.0511002  
C77      C      0.266440000000     0.067220000000     0.543390000000     0.313154   
C78      C      0.609920000000     0.485780000000     0.577920000000    -0.0238622  
C79      C      0.571190000000     0.365160000000     0.501340000000    -0.0284536  
C80      C      0.495360000000     0.360380000000     0.511530000000    -0.0109631  
C81      C      0.553650000000     0.339450000000     0.498730000000    -0.0109466  
C82      C      0.576840000000     0.422110000000     0.508090000000    -0.0539614  
C83      C      0.601130000000     0.429290000000     0.570270000000    -0.0557167  
C84      C      0.570270000000     0.403740000000     0.531400000000     0.0632737  
C85      C      0.515220000000     0.385280000000     0.513690000000    -0.0284144  
C86      C      0.607810000000     0.447630000000     0.546950000000     0.0660845  
C87      C      0.664300000000     0.464550000000     0.562890000000    -0.00289792 
C88      C      0.595460000000     0.443850000000     0.515910000000    -0.0506417  
C89      C      0.685890000000     0.488860000000     0.565850000000    -0.0578384  
C90      C      0.628720000000     0.511030000000     0.580590000000    -0.0107172  
C91      C      0.582490000000     0.407570000000     0.562460000000    -0.0511407  
C92      C      0.694020000000     0.499910000000     0.533580000000     0.315076   
C93      C      0.815350000000     0.976140000000     0.205920000000    -0.0239821  
C94      C      0.860070000000     0.889860000000     0.335800000000    -0.0289745  
C95      C      0.900980000000     0.852400000000     0.301320000000    -0.00991755 
C96      C      0.865890000000     0.863930000000     0.350360000000    -0.00988306 
C97      C      0.869250000000     0.933250000000     0.288750000000    -0.0541311  
C98      C      0.806570000000     0.933630000000     0.253590000000    -0.055681   
C99      C      0.849150000000     0.911170000000     0.286020000000     0.0636226  
C100     C      0.893790000000     0.878740000000     0.288520000000    -0.0289721  
C101     C      0.826810000000     0.955670000000     0.256110000000     0.0659448  
C102     C      0.782970000000     0.988610000000     0.253340000000    -0.00293068 
C103     C      0.858090000000     0.955270000000     0.273850000000    -0.0502016  
C104     C      0.775500000000     0.014870000000     0.239730000000    -0.0583733  
C105     C      0.810400000000     0.001850000000     0.190610000000    -0.0104894  
C106     C      0.817770000000     0.911600000000     0.268430000000    -0.0514222  
C107     C      0.799120000000     0.034350000000     0.254750000000     0.314725   
C108     C      0.572420000000     0.223820000000     0.350070000000    -0.023763   
C109     C      0.605340000000     0.129780000000     0.225860000000    -0.0285062  
C110     C      0.679890000000     0.138410000000     0.212530000000    -0.0104214  
C111     C      0.621260000000     0.120410000000     0.194610000000    -0.0106186  
C112     C      0.592780000000     0.188380000000     0.258850000000    -0.0511345  
C113     C      0.586160000000     0.164650000000     0.317870000000    -0.0502074  
C114     C      0.606740000000     0.164320000000     0.263030000000     0.0637109  
C115     C      0.661570000000     0.147080000000     0.243040000000    -0.0284878  
C116     C      0.572250000000     0.188730000000     0.313700000000     0.0659454  
C117     C      0.516950000000     0.204970000000     0.333810000000    -0.00294107 
C118     C      0.575620000000     0.200540000000     0.283890000000    -0.0554004  
C119     C      0.498070000000     0.213830000000     0.364210000000    -0.0588495  
C120     C      0.556750000000     0.233090000000     0.381440000000    -0.0105718  
C121     C      0.603260000000     0.152460000000     0.292810000000    -0.0539572  
C122     C      0.492960000000     0.192420000000     0.387250000000     0.315481   
C123     C      0.318010000000     0.945560000000     0.736490000000    -0.0238963  
C124     C      0.370570000000     0.873890000000     0.878250000000    -0.0285461  
C125     C      0.386660000000     0.825910000000     0.848520000000    -0.010461   
C126     C      0.373360000000     0.850210000000     0.898630000000    -0.010747   
C127     C      0.376970000000     0.907230000000     0.819700000000    -0.0540168  
C128     C      0.308500000000     0.912870000000     0.795890000000    -0.0556381  
C129     C      0.351030000000     0.889210000000     0.826940000000     0.0635856  
C130     C      0.383720000000     0.850410000000     0.829900000000    -0.0286648  
C131     C      0.334370000000     0.931000000000     0.788850000000     0.0660749  
C132     C      0.299380000000     0.968710000000     0.783490000000    -0.0027307  
C133     C      0.368560000000     0.927970000000     0.800880000000    -0.050492   
C134     C      0.295540000000     0.993180000000     0.764440000000    -0.0584707  
C135     C      0.316170000000     0.968990000000     0.715650000000    -0.0104913  
C136     C      0.316870000000     0.892220000000     0.814840000000    -0.0512432  
C137     C      0.326170000000     0.010650000000     0.770490000000     0.314288   
C138     C      0.527640000000     0.701120000000     0.835620000000    -0.0238918  
C139     C      0.671830000000     0.640490000000     0.747720000000    -0.0285026  
C140     C      0.636340000000     0.594750000000     0.727250000000    -0.0109102  
C141     C      0.693870000000     0.617920000000     0.737360000000    -0.0107414  
C142     C      0.606360000000     0.672680000000     0.759330000000    -0.054201   
C143     C      0.593850000000     0.669590000000     0.824820000000    -0.0558607  
C144     C      0.619070000000     0.651970000000     0.776640000000     0.0631929  
C145     C      0.616890000000     0.618370000000     0.738040000000    -0.028338   
C146     C      0.581090000000     0.690280000000     0.807500000000     0.0657323  
C147     C      0.581910000000     0.723590000000     0.846620000000    -0.00326967 
C148     C      0.587560000000     0.691640000000     0.774740000000    -0.0509103  
C149     C      0.561940000000     0.747090000000     0.857750000000    -0.0586525  
C150     C      0.504800000000     0.723400000000     0.845440000000    -0.0100943  
C151     C      0.612680000000     0.650640000000     0.809410000000    -0.0514078  
C152     C      0.563540000000     0.767410000000     0.832780000000     0.316415   
C153     C      0.621840000000     0.964600000000     0.104760000000    -0.0239357  
C154     C      0.565550000000     0.878540000000     0.978090000000    -0.028404   
C155     C      0.546160000000     0.833990000000     0.014200000000    -0.0108072  
C156     C      0.562710000000     0.853220000000     0.961290000000    -0.010874   
C157     C      0.558620000000     0.917090000000     0.031450000000    -0.0539689  
C158     C      0.627730000000     0.924800000000     0.052700000000    -0.0556617  
C159     C      0.584150000000     0.898210000000     0.027110000000     0.0635168  
C160     C      0.549620000000     0.860040000000     0.029090000000    -0.0284708  
C161     C      0.602280000000     0.943750000000     0.056840000000     0.0660005  
C162     C      0.636970000000     0.981670000000     0.052870000000    -0.00292226 
C163     C      0.567740000000     0.939650000000     0.046170000000    -0.0504419  
C164     C      0.641410000000     0.008250000000     0.066450000000    -0.0584237  
C165     C      0.624540000000     0.990330000000     0.120570000000    -0.0105194  
C166     C      0.618630000000     0.902260000000     0.037930000000    -0.0512223  
C167     C      0.610090000000     0.024560000000     0.058370000000     0.314739   
C168     C      0.110060000000     0.612020000000     0.248480000000    -0.0236281  
C169     C      0.070430000000     0.736870000000     0.313140000000    -0.0286393  
C170     C      0.993700000000     0.734340000000     0.317300000000    -0.0106088  
C171     C      0.048840000000     0.761030000000     0.315690000000    -0.0107044  
C172     C      0.085130000000     0.680320000000     0.313490000000    -0.0538652  
C173     C      0.096000000000     0.668190000000     0.249480000000    -0.0557578  
C174     C      0.070470000000     0.695560000000     0.289530000000     0.0632749  
C175     C      0.017340000000     0.711210000000     0.314680000000    -0.028618   
C176     C      0.110390000000     0.652830000000     0.273440000000     0.0661049  
C177     C      0.163890000000     0.636760000000     0.249460000000    -0.00317792 
C178     C      0.104870000000     0.659140000000     0.305400000000    -0.0505833  
C179     C      0.187280000000     0.613300000000     0.246550000000    -0.0579534  
C180     C      0.130630000000     0.587450000000     0.246350000000    -0.0106944  
C181     C      0.076170000000     0.689330000000     0.257570000000    -0.0510677  
C182     C      0.203940000000     0.606700000000     0.278110000000     0.316226   
C183     C      0.418090000000     0.693610000000     0.018060000000    -0.0239931  
C184     C      0.270520000000     0.617040000000     0.076670000000    -0.0288435  
C185     C      0.305950000000     0.570520000000     0.093860000000    -0.0105707  
C186     C      0.249240000000     0.592900000000     0.080860000000    -0.0104267  
C187     C      0.335010000000     0.651680000000     0.080420000000    -0.054071   
C188     C      0.355020000000     0.658220000000     0.016900000000    -0.0558552  
C189     C      0.326170000000     0.633330000000     0.057690000000     0.0632651  
C190     C      0.325520000000     0.595320000000     0.089230000000    -0.02874    
C191     C      0.364010000000     0.676510000000     0.039660000000     0.0658815  
C192     C      0.362310000000     0.715250000000     0.009870000000    -0.0028685  
C193     C      0.353810000000     0.673040000000     0.071380000000    -0.0505306  
C194     C      0.380910000000     0.740620000000     0.005270000000    -0.0582508  
C195     C      0.439120000000     0.717910000000     0.014690000000    -0.0103245  
C196     C      0.336330000000     0.636810000000     0.025970000000    -0.0514084  
C197     C      0.377610000000     0.756800000000     0.034600000000     0.314356   
C198     C      0.331190000000     0.472610000000     0.252980000000    -0.0239082  
C199     C      0.360170000000     0.362280000000     0.354030000000    -0.0285094  
C200     C      0.432040000000     0.347370000000     0.338050000000    -0.0109179  
C201     C      0.372780000000     0.335700000000     0.361400000000    -0.0109035  
C202     C      0.365190000000     0.417310000000     0.333620000000    -0.0539655  
C203     C      0.331690000000     0.418070000000     0.274320000000    -0.055778   
C204     C      0.364060000000     0.395370000000     0.315010000000     0.0632465  
C205     C      0.417190000000     0.373520000000     0.331390000000    -0.0284661  
C206     C      0.332740000000     0.440000000000     0.292940000000     0.0660799  
C207     C      0.277390000000     0.460340000000     0.280760000000    -0.00255111 
C208     C      0.349660000000     0.439400000000     0.322560000000    -0.0506954  
C209     C      0.259880000000     0.485790000000     0.273910000000    -0.0579519  
C210     C      0.316430000000     0.498680000000     0.245900000000    -0.0107693  
C211     C      0.347300000000     0.396000000000     0.285340000000    -0.0512137  
C212     C      0.260520000000     0.502640000000     0.302770000000     0.31398    
C213     C      0.029470000000     0.201230000000     0.822650000000    -0.0237957  
C214     C      0.173150000000     0.129060000000     0.749640000000    -0.0284735  
C215     C      0.144280000000     0.078440000000     0.751500000000    -0.0105525  
C216     C      0.197760000000     0.106540000000     0.746080000000    -0.0107435  
C217     C      0.104080000000     0.158160000000     0.754360000000    -0.0540571  
C218     C      0.098270000000     0.171340000000     0.818560000000    -0.0555497  
C219     C      0.121420000000     0.143730000000     0.777660000000     0.0635166  
C220     C      0.121700000000     0.102060000000     0.754880000000    -0.0285123  
C221     C      0.081160000000     0.185880000000     0.795250000000     0.0659785  
C222     C      0.081800000000     0.227320000000     0.818700000000    -0.00309138 
C223     C      0.084190000000     0.179070000000     0.763190000000    -0.0505787  
C224     C      0.060190000000     0.251560000000     0.822240000000    -0.0583377  
C225     C      0.005210000000     0.223990000000     0.825490000000    -0.0105854  
C226     C      0.118250000000     0.150470000000     0.809720000000    -0.0512184  
C227     C      0.056230000000     0.264720000000     0.790630000000     0.315366   
C228     C      0.919630000000     0.222720000000     0.996130000000    -0.0240419  
C229     C      0.775460000000     0.139590000000     0.046560000000    -0.0283791  
C230     C      0.813720000000     0.099830000000     0.079290000000    -0.0109264  
C231     C      0.757730000000     0.114230000000     0.052250000000    -0.0111402  
C232     C      0.847960000000     0.159370000000     0.003750000000    -0.0509866  
C233     C      0.848360000000     0.202400000000     0.041710000000    -0.0504325  
C234     C      0.831250000000     0.158950000000     0.033450000000     0.0636745  
C235     C      0.829490000000     0.125690000000     0.072630000000    -0.0284375  
C236     C      0.865030000000     0.202830000000     0.011980000000     0.0661408  
C237     C      0.863660000000     0.236390000000     0.973400000000    -0.00254706 
C238     C      0.864700000000     0.181090000000     0.992990000000    -0.0554431  
C239     C      0.878700000000     0.262400000000     0.965320000000    -0.0583539  
C240     C      0.936630000000     0.248230000000     0.989950000000    -0.0106347  
C241     C      0.831550000000     0.180680000000     0.052450000000    -0.0540375  
C242     C      0.866570000000     0.281970000000     0.988870000000     0.313669   
C243     C      0.919090000000     0.379200000000     0.788680000000    -0.0242927  
C244     C      0.780820000000     0.467840000000     0.740680000000    -0.0284578  
C245     C      0.821410000000     0.504920000000     0.705220000000    -0.0108269  
C246     C      0.765360000000     0.493910000000     0.735070000000    -0.010773   
C247     C      0.832220000000     0.423910000000     0.734810000000    -0.053643   
C248     C      0.868610000000     0.423570000000     0.792710000000    -0.0555931  
C249     C      0.835180000000     0.446150000000     0.752650000000     0.0635502  
C250     C      0.834610000000     0.478380000000     0.712090000000    -0.0284197  
C251     C      0.865590000000     0.401310000000     0.774930000000     0.0669871  
C252     C      0.863810000000     0.369300000000     0.815580000000    -0.00278647 
C253     C      0.847350000000     0.401710000000     0.745960000000    -0.0506119  
C254     C      0.876890000000     0.342900000000     0.824440000000    -0.0577522  
C255     C      0.933950000000     0.353120000000     0.795410000000    -0.0100625  
C256     C      0.853500000000     0.445760000000     0.781560000000    -0.0501351  
C257     C      0.861080000000     0.323160000000     0.803000000000     0.313663   
C258     C      0.078820000000     0.364880000000     0.983760000000    -0.0238329  
C259     C      0.109150000000     0.471820000000     0.090770000000    -0.0284654  
C260     C      0.172500000000     0.455160000000     0.123990000000    -0.0109182  
C261     C      0.119430000000     0.484000000000     0.122410000000    -0.0109491  
C262     C      0.085640000000     0.411590000000     0.068330000000    -0.0509991  
C263     C      0.102730000000     0.425190000000     0.005940000000    -0.0508558  
C264     C      0.107840000000     0.432140000000     0.062980000000     0.0631727  
C265     C      0.160170000000     0.444190000000     0.092280000000    -0.0284146  
C266     C      0.080550000000     0.404640000000     0.011300000000     0.0660469  
C267     C      0.028210000000     0.392780000000     0.981940000000    -0.00295164 
C268     C      0.072040000000     0.397910000000     0.042780000000    -0.0556912  
C269     C      0.015290000000     0.381600000000     0.950280000000    -0.0586498  
C270     C      0.069010000000     0.352760000000     0.952000000000    -0.0104569  
C271     C      0.116330000000     0.438880000000     0.031500000000    -0.0539811  
C272     C      0.023280000000     0.398950000000     0.922810000000     0.315867   
Cd1      Cd     0.973840000000     0.301500000000     0.892850000000     0.511908   
Cd2      Cd     0.216950000000     0.536590000000     0.176820000000     0.509134   
Cd3      Cd     0.469400000000     0.786450000000     0.932290000000     0.509215   
Cd4      Cd     0.714000000000     0.060460000000     0.146580000000     0.509137   
Cd5      Cd     0.462450000000     0.289650000000     0.433070000000     0.508446   
Cd6      Cd     0.724010000000     0.555350000000     0.648150000000     0.509815   
Cd7      Cd     0.965960000000     0.807870000000     0.393280000000     0.507078   
Cd8      Cd     0.225170000000     0.032080000000     0.671900000000     0.508574   
H1       H      0.056500000000     0.921300000000     0.584020000000     0.0485146  
H2       H      0.097050000000     0.858740000000     0.499300000000     0.0399818  
H3       H      0.039030000000     0.920490000000     0.463100000000     0.0403937  
H4       H      0.133840000000     0.948790000000     0.651340000000     0.0434272  
H5       H      0.090540000000     0.851810000000     0.442640000000     0.0572959  
H6       H      0.088220000000     0.982900000000     0.571160000000     0.0407998  
H7       H      0.146140000000     0.920990000000     0.607010000000     0.0390566  
H8       H      0.121920000000     0.012090000000     0.606570000000     0.0525831  
H9       H      0.003000000000     0.890680000000     0.429560000000     0.0710761  
H10      H      0.037710000000     0.895810000000     0.538460000000     0.0448184  
H11      H      0.064160000000     0.829410000000     0.463710000000     0.0505302  
H12      H      0.147800000000     0.945790000000     0.531280000000     0.0478288  
H13      H      0.049910000000     0.859730000000     0.505180000000     0.0408715  
H14      H      0.180330000000     0.949360000000     0.642960000000     0.0498054  
H15      H      0.135240000000     0.981880000000     0.564490000000     0.0468406  
H16      H      0.169570000000     0.945210000000     0.585790000000     0.0448251  
H17      H      0.128990000000     0.920310000000     0.485690000000     0.0565723  
H18      H      0.016140000000     0.896180000000     0.484200000000     0.0361383  
H19      H      0.096050000000     0.989390000000     0.627870000000     0.0442111  
H20      H      0.104720000000     0.904340000000     0.397440000000     0.184501   
H21      H      0.870560000000     0.687280000000     0.472670000000     0.0455609  
H22      H      0.857180000000     0.632000000000     0.572950000000     0.0401559  
H23      H      0.759210000000     0.653610000000     0.532500000000     0.0400775  
H24      H      0.926270000000     0.767730000000     0.513220000000     0.0434605  
H25      H      0.824390000000     0.593680000000     0.565460000000     0.0597776  
H26      H      0.827850000000     0.743720000000     0.478020000000     0.0395052  
H27      H      0.924780000000     0.722710000000     0.521000000000     0.0388877  
H28      H      0.859310000000     0.774540000000     0.443270000000     0.050204   
H29      H      0.728170000000     0.623280000000     0.569580000000     0.0715254  
H30      H      0.842640000000     0.649030000000     0.493120000000     0.0559131  
H31      H      0.826750000000     0.600330000000     0.607190000000     0.0514012  
H32      H      0.841690000000     0.726390000000     0.558580000000     0.048352   
H33      H      0.823380000000     0.645240000000     0.598060000000     0.0406888  
H34      H      0.957390000000     0.753280000000     0.486680000000     0.0494435  
H35      H      0.861490000000     0.729510000000     0.453570000000     0.0432566  
H36      H      0.918830000000     0.717060000000     0.479020000000     0.0428339  
H37      H      0.813930000000     0.688100000000     0.579090000000     0.044746   
H38      H      0.766660000000     0.657970000000     0.574310000000     0.0357692  
H39      H      0.862500000000     0.781520000000     0.484980000000     0.043942   
H40      H      0.780320000000     0.590030000000     0.493520000000     0.187203   
H41      H      0.333310000000     0.195200000000     0.583410000000     0.0492121  
H42      H      0.360680000000     0.101480000000     0.593540000000     0.0412242  
H43      H      0.265200000000     0.117520000000     0.544670000000     0.0411275  
H44      H      0.415850000000     0.243890000000     0.548310000000     0.0438868  
H45      H      0.331900000000     0.061850000000     0.581810000000     0.0567186  
H46      H      0.325030000000     0.215530000000     0.503660000000     0.0406974  
H47      H      0.419990000000     0.198650000000     0.552730000000     0.040283   
H48      H      0.355330000000     0.249990000000     0.473880000000     0.0523038  
H49      H      0.233910000000     0.085090000000     0.577930000000     0.0718661  
H50      H      0.309350000000     0.154340000000     0.599110000000     0.0457796  
H51      H      0.331410000000     0.067210000000     0.623910000000     0.0524508  
H52      H      0.375840000000     0.162280000000     0.497940000000     0.0489766  
H53      H      0.323240000000     0.112290000000     0.616250000000     0.0432261  
H54      H      0.451400000000     0.232940000000     0.523680000000     0.051107   
H55      H      0.362550000000     0.204790000000     0.481010000000     0.0473367  
H56      H      0.418840000000     0.194810000000     0.510080000000     0.0470078  
H57      H      0.351820000000     0.121360000000     0.513630000000     0.0568049  
H58      H      0.266830000000     0.122190000000     0.586960000000     0.0371286  
H59      H      0.353800000000     0.254940000000     0.516150000000     0.0444092  
H60      H      0.298840000000     0.058260000000     0.506580000000     0.184235   
H61      H      0.577690000000     0.393580000000     0.580600000000     0.0489074  
H62      H      0.582030000000     0.489250000000     0.570870000000     0.040512   
H63      H      0.676790000000     0.452150000000     0.544780000000     0.0402526  
H64      H      0.491780000000     0.352860000000     0.535990000000     0.0448075  
H65      H      0.624470000000     0.521670000000     0.558180000000     0.0597974  
H66      H      0.598870000000     0.362460000000     0.509520000000     0.0398099  
H67      H      0.501300000000     0.397520000000     0.531080000000     0.0390594  
H68      H      0.567240000000     0.328540000000     0.479820000000     0.051198   
H69      H      0.711410000000     0.483540000000     0.577150000000     0.0714747  
H70      H      0.610460000000     0.431700000000     0.594410000000     0.0450761  
H71      H      0.616330000000     0.521910000000     0.600190000000     0.0518306  
H72      H      0.567760000000     0.419580000000     0.483890000000     0.0453835  
H73      H      0.609940000000     0.476500000000     0.601650000000     0.0412139  
H74      H      0.468720000000     0.363930000000     0.501400000000     0.0491381  
H75      H      0.571860000000     0.374070000000     0.477380000000     0.0428949  
H76      H      0.514630000000     0.394660000000     0.490030000000     0.0419833  
H77      H      0.600490000000     0.457770000000     0.497720000000     0.056017   
H78      H      0.665240000000     0.454500000000     0.586100000000     0.0361132  
H79      H      0.557410000000     0.329320000000     0.521600000000     0.0455036  
H80      H      0.672970000000     0.509560000000     0.490840000000     0.186833   
H81      H      0.802010000000     0.894770000000     0.266200000000     0.0484714  
H82      H      0.840570000000     0.968030000000     0.197080000000     0.0399265  
H83      H      0.784020000000     0.989660000000     0.279800000000     0.040134   
H84      H      0.881480000000     0.839290000000     0.290650000000     0.0440586  
H85      H      0.834700000000     0.013090000000     0.194540000000     0.0575054  
H86      H      0.834310000000     0.897220000000     0.344430000000     0.0397775  
H87      H      0.893010000000     0.877840000000     0.262070000000     0.0397149  
H88      H      0.868190000000     0.865950000000     0.376610000000     0.0510037  
H89      H      0.747720000000     0.019430000000     0.246200000000     0.0714753  
H90      H      0.782260000000     0.933430000000     0.240090000000     0.0445946  
H91      H      0.807390000000     0.999270000000     0.164500000000     0.049943   
H92      H      0.893530000000     0.933450000000     0.302300000000     0.0474797  
H93      H      0.793380000000     0.963630000000     0.198360000000     0.0404105  
H94      H      0.927700000000     0.846420000000     0.293470000000     0.0510135  
H95      H      0.881290000000     0.902720000000     0.344120000000     0.0450958  
H96      H      0.915870000000     0.891320000000     0.295610000000     0.0456401  
H97      H      0.873880000000     0.972090000000     0.276030000000     0.0563398  
H98      H      0.760620000000     0.976020000000     0.246940000000     0.0360364  
H99      H      0.842300000000     0.852200000000     0.345370000000     0.0444955  
H100     H      0.849910000000     0.042980000000     0.265690000000     0.184367   
H101     H      0.613720000000     0.133850000000     0.296640000000     0.0467369  
H102     H      0.601100000000     0.220310000000     0.353730000000     0.0403791  
H103     H      0.504240000000     0.187450000000     0.325050000000     0.0398954  
H104     H      0.681400000000     0.154520000000     0.195820000000     0.0450271  
H105     H      0.564530000000     0.219940000000     0.400720000000     0.0578988  
H106     H      0.576980000000     0.134130000000     0.221730000000     0.0403329  
H107     H      0.675050000000     0.164310000000     0.251700000000     0.0403478  
H108     H      0.608460000000     0.102370000000     0.188180000000     0.0519685  
H109     H      0.471500000000     0.220510000000     0.356680000000     0.0712188  
H110     H      0.583660000000     0.155320000000     0.340640000000     0.0560333  
H111     H      0.568570000000     0.251620000000     0.387130000000     0.0507909  
H112     H      0.595190000000     0.197690000000     0.236060000000     0.0491364  
H113     H      0.569540000000     0.238740000000     0.331730000000     0.0407348  
H114     H      0.707360000000     0.132730000000     0.218430000000     0.0528923  
H115     H      0.607000000000     0.114630000000     0.244020000000     0.044038   
H116     H      0.664430000000     0.132300000000     0.261560000000     0.0450531  
H117     H      0.565000000000     0.219110000000     0.280000000000     0.0449702  
H118     H      0.513490000000     0.219460000000     0.315000000000     0.035954   
H119     H      0.615020000000     0.134160000000     0.175540000000     0.0464008  
H120     H      0.518120000000     0.164760000000     0.411490000000     0.183409   
H121     H      0.296730000000     0.878420000000     0.820040000000     0.0487806  
H122     H      0.338710000000     0.932950000000     0.726660000000     0.0401432  
H123     H      0.306150000000     0.973230000000     0.808640000000     0.040185   
H124     H      0.360950000000     0.815930000000     0.847060000000     0.0448052  
H125     H      0.343130000000     0.976990000000     0.713390000000     0.0577301  
H126     H      0.351270000000     0.886810000000     0.889630000000     0.040252   
H127     H      0.374220000000     0.846010000000     0.805460000000     0.0395001  
H128     H      0.384460000000     0.855300000000     0.922240000000     0.0520139  
H129     H      0.271160000000     0.002470000000     0.773400000000     0.0714081  
H130     H      0.281940000000     0.914670000000     0.786710000000     0.0449523  
H131     H      0.307380000000     0.963390000000     0.691440000000     0.0512158  
H132     H      0.403670000000     0.905230000000     0.828480000000     0.0462026  
H133     H      0.292240000000     0.935560000000     0.735400000000     0.0412771  
H134     H      0.406950000000     0.813890000000     0.837030000000     0.0512648  
H135     H      0.396760000000     0.883340000000     0.877720000000     0.0434465  
H136     H      0.410330000000     0.859130000000     0.827970000000     0.0443136  
H137     H      0.388740000000     0.941700000000     0.795550000000     0.0558588  
H138     H      0.273400000000     0.958950000000     0.783650000000     0.0361879  
H139     H      0.346340000000     0.842670000000     0.902510000000     0.0463636  
H140     H      0.379640000000     0.013080000000     0.772450000000     0.184354   
H141     H      0.622270000000     0.634810000000     0.823000000000     0.0484833  
H142     H      0.512980000000     0.690120000000     0.817400000000     0.0393412  
H143     H      0.608070000000     0.729160000000     0.836780000000     0.0394884  
H144     H      0.636990000000     0.581240000000     0.747380000000     0.0453551  
H145     H      0.495520000000     0.733180000000     0.823650000000     0.0580548  
H146     H      0.687210000000     0.651290000000     0.765650000000     0.0390164  
H147     H      0.591240000000     0.612670000000     0.748730000000     0.0390063  
H148     H      0.717630000000     0.624810000000     0.724520000000     0.0487959  
H149     H      0.575860000000     0.754010000000     0.879390000000     0.0712167  
H150     H      0.589180000000     0.668070000000     0.850140000000     0.0445496  
H151     H      0.481040000000     0.716160000000     0.857960000000     0.0489095  
H152     H      0.610910000000     0.674140000000     0.733980000000     0.0452725  
H153     H      0.532080000000     0.688830000000     0.856660000000     0.039761   
H154     H      0.621140000000     0.585940000000     0.707580000000     0.0506644  
H155     H      0.667140000000     0.652840000000     0.726790000000     0.0419137  
H156     H      0.611290000000     0.630340000000     0.716930000000     0.0424138  
H157     H      0.577870000000     0.707440000000     0.761150000000     0.0550572  
H158     H      0.586980000000     0.711380000000     0.867620000000     0.0356198  
H159     H      0.703080000000     0.607840000000     0.758970000000     0.0447939  
H160     H      0.551230000000     0.776000000000     0.787020000000     0.183843   
H161     H      0.638520000000     0.887910000000     0.034760000000     0.0488377  
H162     H      0.602090000000     0.953270000000     0.118080000000     0.0399139  
H163     H      0.628620000000     0.982920000000     0.027500000000     0.0401857  
H164     H      0.571140000000     0.823560000000     0.018340000000     0.0454718  
H165     H      0.597570000000     0.998310000000     0.122920000000     0.0577875  
H166     H      0.585710000000     0.890020000000     0.965490000000     0.0403919  
H167     H      0.557980000000     0.857790000000     0.054320000000     0.0397868  
H168     H      0.552710000000     0.856300000000     0.936730000000     0.0529512  
H169     H      0.665070000000     0.016390000000     0.054590000000     0.0717437  
H170     H      0.654600000000     0.927480000000     0.060720000000     0.044719   
H171     H      0.635240000000     0.987820000000     0.145000000000     0.0494788  
H172     H      0.531790000000     0.914430000000     0.023320000000     0.0461723  
H173     H      0.647850000000     0.954980000000     0.106440000000     0.0401922  
H174     H      0.524590000000     0.823700000000     0.026470000000     0.0517513  
H175     H      0.539710000000     0.888400000000     0.976420000000     0.0434954  
H176     H      0.523370000000     0.869420000000     0.028800000000     0.0440011  
H177     H      0.547910000000     0.954060000000     0.049180000000     0.055948   
H178     H      0.663080000000     0.972090000000     0.053390000000     0.0359965  
H179     H      0.589580000000     0.844980000000     0.959400000000     0.04718    
H180     H      0.556570000000     0.026740000000     0.059460000000     0.184451   
H181     H      0.065140000000     0.700910000000     0.238900000000     0.048775   
H182     H      0.084710000000     0.608300000000     0.260990000000     0.0405733  
H183     H      0.178570000000     0.651620000000     0.262540000000     0.0400253  
H184     H      0.983550000000     0.739020000000     0.293200000000     0.0446179  
H185     H      0.132060000000     0.578960000000     0.270460000000     0.0607172  
H186     H      0.094880000000     0.740970000000     0.299420000000     0.0401418  
H187     H      0.002390000000     0.696240000000     0.302090000000     0.0390857  
H188     H      0.064060000000     0.774900000000     0.329870000000     0.0514297  
H189     H      0.208860000000     0.618190000000     0.229640000000     0.0711781  
H190     H      0.100000000000     0.663820000000     0.224610000000     0.0450301  
H191     H      0.115660000000     0.574270000000     0.230930000000     0.0518011  
H192     H      0.081250000000     0.684770000000     0.338360000000     0.0457389  
H193     H      0.103880000000     0.618680000000     0.223990000000     0.0409077  
H194     H      0.970650000000     0.729700000000     0.332570000000     0.0491362  
H195     H      0.078220000000     0.730670000000     0.337450000000     0.0433629  
H196     H      0.023770000000     0.704380000000     0.339030000000     0.0424878  
H197     H      0.115890000000     0.647550000000     0.324070000000     0.0562116  
H198     H      0.158330000000     0.644070000000     0.225140000000     0.0360293  
H199     H      0.045240000000     0.768870000000     0.291390000000     0.0457966  
H200     H      0.193870000000     0.599610000000     0.324720000000     0.187675   
H201     H      0.329590000000     0.622910000000     0.008210000000     0.0482076  
H202     H      0.432800000000     0.680840000000     0.034260000000     0.0398768  
H203     H      0.335430000000     0.718450000000     0.019830000000     0.0397812  
H204     H      0.307420000000     0.559700000000     0.071290000000     0.0432301  
H205     H      0.445410000000     0.725120000000     0.038850000000     0.0572951  
H206     H      0.257000000000     0.628910000000     0.058630000000     0.0392041  
H207     H      0.352600000000     0.591170000000     0.080420000000     0.0394959  
H208     H      0.222730000000     0.597670000000     0.090420000000     0.0494941  
H209     H      0.366850000000     0.750240000000     0.985450000000     0.0714177  
H210     H      0.362360000000     0.660520000000     0.992200000000     0.0447014  
H211     H      0.464570000000     0.713590000000     0.002730000000     0.0495772  
H212     H      0.327310000000     0.649520000000     0.105060000000     0.0465684  
H213     H      0.416070000000     0.684440000000     0.994340000000     0.0404912  
H214     H      0.319560000000     0.559470000000     0.112620000000     0.0512284  
H215     H      0.270910000000     0.627420000000     0.099650000000     0.0441967  
H216     H      0.327810000000     0.604950000000     0.112640000000     0.0448109  
H217     H      0.360370000000     0.687020000000     0.089090000000     0.0560753  
H218     H      0.358960000000     0.706220000000     0.986160000000     0.0361175  
H219     H      0.245530000000     0.584150000000     0.057080000000     0.042979   
H220     H      0.383960000000     0.757600000000     0.082590000000     0.183817   
H221     H      0.346080000000     0.379250000000     0.270860000000     0.0487047  
H222     H      0.360390000000     0.474070000000     0.255140000000     0.0404592  
H223     H      0.266730000000     0.452620000000     0.303440000000     0.0404925  
H224     H      0.430080000000     0.336060000000     0.315910000000     0.0441954  
H225     H      0.326400000000     0.511930000000     0.264210000000     0.0586798  
H226     H      0.331250000000     0.361650000000     0.349400000000     0.0397924  
H227     H      0.430570000000     0.381200000000     0.309930000000     0.0389571  
H228     H      0.359950000000     0.329280000000     0.383750000000     0.0514348  
H229     H      0.231740000000     0.481710000000     0.268260000000     0.0719607  
H230     H      0.318590000000     0.417950000000     0.251450000000     0.0451356  
H231     H      0.326740000000     0.505000000000     0.222470000000     0.0520033  
H232     H      0.377790000000     0.417280000000     0.356720000000     0.0454136  
H233     H      0.325030000000     0.459990000000     0.232630000000     0.0416593  
H234     H      0.460460000000     0.349120000000     0.344220000000     0.0490216  
H235     H      0.364830000000     0.374420000000     0.375160000000     0.0433088  
H236     H      0.423310000000     0.385980000000     0.351920000000     0.0421839  
H237     H      0.350500000000     0.456080000000     0.337200000000     0.0560102  
H238     H      0.270070000000     0.447050000000     0.261410000000     0.0366609  
H239     H      0.363950000000     0.323100000000     0.341900000000     0.0452353  
H240     H      0.290960000000     0.515500000000     0.339060000000     0.185719   
H241     H      0.131400000000     0.139530000000     0.827880000000     0.0493339  
H242     H      0.014390000000     0.185790000000     0.811160000000     0.0400731  
H243     H      0.105950000000     0.231220000000     0.804390000000     0.0402788  
H244     H      0.149980000000     0.070990000000     0.775660000000     0.045971   
H245     H      0.993160000000     0.227780000000     0.801860000000     0.0590112  
H246     H      0.188190000000     0.144590000000     0.760970000000     0.04019    
H247     H      0.098530000000     0.097540000000     0.770110000000     0.0392273  
H248     H      0.219340000000     0.111570000000     0.729330000000     0.0513705  
H249     H      0.075570000000     0.264040000000     0.838350000000     0.0727813  
H250     H      0.096250000000     0.176150000000     0.843510000000     0.0450626  
H251     H      0.983410000000     0.219280000000     0.842150000000     0.0503623  
H252     H      0.106040000000     0.153320000000     0.729420000000     0.0456969  
H253     H      0.037370000000     0.194960000000     0.846900000000     0.0404804  
H254     H      0.128830000000     0.064030000000     0.738440000000     0.0498158  
H255     H      0.164560000000     0.135350000000     0.725590000000     0.0427325  
H256     H      0.111820000000     0.107730000000     0.730980000000     0.0427826  
H257     H      0.071110000000     0.190060000000     0.745030000000     0.0557248  
H258     H      0.090630000000     0.221180000000     0.842740000000     0.03637    
H259     H      0.209950000000     0.102510000000     0.769590000000     0.0482592  
H260     H      0.040020000000     0.260490000000     0.744860000000     0.184611   
H261     H      0.818720000000     0.180880000000     0.075440000000     0.0459198  
H262     H      0.932240000000     0.214320000000     0.017540000000     0.0399382  
H263     H      0.834760000000     0.238020000000     0.977850000000     0.0415862  
H264     H      0.822610000000     0.086740000000     0.060340000000     0.0451857  
H265     H      0.935330000000     0.259490000000     0.012160000000     0.0560159  
H266     H      0.764470000000     0.147790000000     0.024320000000     0.0408276  
H267     H      0.858540000000     0.123600000000     0.069690000000     0.0395639  
H268     H      0.729090000000     0.117310000000     0.056410000000     0.0532151  
H269     H      0.867730000000     0.267500000000     0.941600000000     0.0757985  
H270     H      0.848270000000     0.219010000000     0.056500000000     0.055837   
H271     H      0.964970000000     0.245330000000     0.984210000000     0.0498152  
H272     H      0.847850000000     0.142820000000     0.988860000000     0.0492637  
H273     H      0.924870000000     0.210240000000     0.975440000000     0.0415457  
H274     H      0.824200000000     0.092850000000     0.102350000000     0.0513502  
H275     H      0.768990000000     0.152380000000     0.066660000000     0.0435918  
H276     H      0.824530000000     0.138080000000     0.093470000000     0.0434875  
H277     H      0.877210000000     0.180950000000     0.969840000000     0.0456341  
H278     H      0.867220000000     0.223940000000     0.952370000000     0.0383979  
H279     H      0.760550000000     0.102710000000     0.030360000000     0.0469616  
H280     H      0.860070000000     0.289640000000     0.035860000000     0.183661   
H281     H      0.855930000000     0.462710000000     0.795540000000     0.050031   
H282     H      0.930810000000     0.386160000000     0.766060000000     0.0424754  
H283     H      0.834560000000     0.368990000000     0.812960000000     0.0416679  
H284     H      0.833230000000     0.517900000000     0.722960000000     0.0455111  
H285     H      0.929720000000     0.341180000000     0.774090000000     0.0585166  
H286     H      0.770100000000     0.460470000000     0.763490000000     0.0395781  
H287     H      0.863920000000     0.478860000000     0.713650000000     0.0402239  
H288     H      0.736370000000     0.492120000000     0.731660000000     0.0492191  
H289     H      0.867370000000     0.339260000000     0.849080000000     0.0761692  
H290     H      0.882510000000     0.423780000000     0.815200000000     0.048536   
H291     H      0.962900000000     0.354740000000     0.799140000000     0.0562362  
H292     H      0.818150000000     0.423720000000     0.712410000000     0.0457216  
H293     H      0.927150000000     0.392090000000     0.808200000000     0.0468849  
H294     H      0.830910000000     0.510670000000     0.681280000000     0.0518663  
H295     H      0.772190000000     0.455130000000     0.721150000000     0.0425669  
H296     H      0.827120000000     0.465890000000     0.691970000000     0.0433691  
H297     H      0.844770000000     0.384720000000     0.732080000000     0.0561591  
H298     H      0.870180000000     0.382260000000     0.835540000000     0.0404233  
H299     H      0.769830000000     0.505440000000     0.756730000000     0.0445045  
H300     H      0.850050000000     0.314150000000     0.757100000000     0.184503   
H301     H      0.133440000000     0.454670000000     0.026710000000     0.0451283  
H302     H      0.108010000000     0.364000000000     0.986510000000     0.0402524  
H303     H      0.019570000000     0.412690000000     0.983630000000     0.0401253  
H304     H      0.163580000000     0.442600000000     0.143500000000     0.0447799  
H305     H      0.085440000000     0.361240000000     0.932920000000     0.0590247  
H306     H      0.079890000000     0.472470000000     0.088470000000     0.0396915  
H307     H      0.168870000000     0.424290000000     0.091050000000     0.0388302  
H308     H      0.112210000000     0.504180000000     0.121570000000     0.0503527  
H309     H      0.986070000000     0.379890000000     0.952310000000     0.0729673  
H310     H      0.109440000000     0.430600000000     0.981860000000     0.0555056  
H311     H      0.075760000000     0.332510000000     0.953150000000     0.0511456  
H312     H      0.078910000000     0.406190000000     0.092410000000     0.0490771  
H313     H      0.066650000000     0.353950000000     0.003480000000     0.0411205  
H314     H      0.201840000000     0.455440000000     0.124290000000     0.0489426  
H315     H      0.120790000000     0.482840000000     0.070870000000     0.0423024  
H316     H      0.172990000000     0.454600000000     0.072440000000     0.0419951  
H317     H      0.054910000000     0.382140000000     0.047580000000     0.0454789  
H318     H      0.015450000000     0.382430000000     0.001880000000     0.0370879  
H319     H      0.103770000000     0.475140000000     0.141750000000     0.0459001  
H320     H      0.062140000000     0.418400000000     0.900490000000     0.184396   
N1       N      0.035690000000     0.858870000000     0.439640000000    -0.142293   
N2       N      0.072010000000     0.891480000000     0.481270000000    -0.107396   
N3       N      0.113550000000     0.950020000000     0.588510000000    -0.11283    
N4       N      0.150880000000     0.982330000000     0.629530000000    -0.152887   
N5       N      0.775900000000     0.605720000000     0.585190000000    -0.141349   
N6       N      0.810310000000     0.642760000000     0.548620000000    -0.107654   
N7       N      0.874130000000     0.732640000000     0.503090000000    -0.112992   
N8       N      0.910020000000     0.767950000000     0.465130000000    -0.153703   
N9       N      0.281460000000     0.071460000000     0.599690000000    -0.142358   
N10      N      0.315340000000     0.110370000000     0.565850000000    -0.107195   
N11      N      0.370100000000     0.206160000000     0.531470000000    -0.112595   
N12      N      0.404520000000     0.245410000000     0.499130000000    -0.152781   
N13      N      0.667000000000     0.507550000000     0.585450000000    -0.141494   
N14      N      0.627560000000     0.470100000000     0.553920000000    -0.107354   
N15      N      0.551720000000     0.380810000000     0.524190000000    -0.11281    
N16      N      0.515470000000     0.341960000000     0.492640000000    -0.153263   
N17      N      0.780110000000     0.015220000000     0.204780000000    -0.142056   
N18      N      0.816430000000     0.978700000000     0.240750000000    -0.10755    
N19      N      0.859850000000     0.888000000000     0.300860000000    -0.112752   
N20      N      0.897120000000     0.851750000000     0.336230000000    -0.152602   
N21      N      0.517830000000     0.234260000000     0.379980000000    -0.141871   
N22      N      0.554640000000     0.200630000000     0.340140000000    -0.107718   
N23      N      0.624160000000     0.152380000000     0.236520000000    -0.112642   
N24      N      0.659960000000     0.118010000000     0.197110000000    -0.152709   
N25      N      0.292730000000     0.987990000000     0.729960000000    -0.141771   
N26      N      0.326780000000     0.952610000000     0.769380000000    -0.107506   
N27      N      0.358750000000     0.867360000000     0.845910000000    -0.112858   
N28      N      0.394640000000     0.831030000000     0.882230000000    -0.152967   
N29      N      0.524630000000     0.741380000000     0.865320000000    -0.141821   
N30      N      0.561250000000     0.710120000000     0.822450000000    -0.108149   
N31      N      0.638330000000     0.631880000000     0.761600000000    -0.112817   
N32      N      0.672970000000     0.600440000000     0.717720000000    -0.153201   
N33      N      0.646310000000     0.007590000000     0.101370000000    -0.142288   
N34      N      0.610790000000     0.967470000000     0.071420000000    -0.107582   
N35      N      0.575970000000     0.874830000000     0.011510000000    -0.112784   
N36      N      0.540160000000     0.835930000000     0.979610000000    -0.152547   
N37      N      0.166880000000     0.591630000000     0.234550000000    -0.14122    
N38      N      0.130790000000     0.630730000000     0.266090000000    -0.107521   
N39      N      0.049610000000     0.717440000000     0.296870000000    -0.112793   
N40      N      0.013780000000     0.755970000000     0.329520000000    -0.153457   
N41      N      0.418630000000     0.737090000000     0.997370000000    -0.142371   
N42      N      0.382930000000     0.699020000000     0.031210000000    -0.107553   
N43      N      0.306600000000     0.611070000000     0.066040000000    -0.113009   
N44      N      0.268560000000     0.575260000000     0.101450000000    -0.153426   
N45      N      0.277490000000     0.498440000000     0.246940000000    -0.141398   
N46      N      0.316020000000     0.462960000000     0.282800000000    -0.107318   
N47      N      0.378880000000     0.371990000000     0.325930000000    -0.112904   
N48      N      0.411620000000     0.334810000000     0.363310000000    -0.153272   
N49      N      0.024880000000     0.246460000000     0.835830000000    -0.141704   
N50      N      0.060510000000     0.207690000000     0.803350000000    -0.107707   
N51      N      0.142640000000     0.122210000000     0.769500000000    -0.112616   
N52      N      0.178020000000     0.084200000000     0.735590000000    -0.153024   
N53      N      0.917710000000     0.261730000000     0.964470000000    -0.141688   
N54      N      0.881480000000     0.225780000000     0.001470000000    -0.107397   
N55      N      0.813870000000     0.136230000000     0.043490000000    -0.112812   
N56      N      0.774830000000     0.100980000000     0.078890000000    -0.15236    
N57      N      0.915830000000     0.341620000000     0.822860000000    -0.140293   
N58      N      0.880420000000     0.377950000000     0.785870000000    -0.107189   
N59      N      0.819540000000     0.469380000000     0.742240000000    -0.112684   
N60      N      0.782630000000     0.506310000000     0.707820000000    -0.153175   
N61      N      0.031410000000     0.356800000000     0.944270000000    -0.141434   
N62      N      0.066880000000     0.391080000000     0.984250000000    -0.107693   
N63      N      0.121480000000     0.445690000000     0.090050000000    -0.112759   
N64      N      0.157270000000     0.480270000000     0.129190000000    -0.153474   
O1       O      0.967780000000     0.326670000000     0.844070000000    -0.243284   
O2       O      0.920240000000     0.286930000000     0.920100000000    -0.234452   
O3       O      0.981230000000     0.342210000000     0.919560000000    -0.24467    
O4       O      0.977430000000     0.261210000000     0.864460000000    -0.251416   
O5       O      0.024010000000     0.284090000000     0.862650000000    -0.238904   
O6       O      0.026520000000     0.318050000000     0.920460000000    -0.245286   
O7       O      0.919520000000     0.317960000000     0.868540000000    -0.232655   
O8       O      0.969290000000     0.274970000000     0.940760000000    -0.252252   
O9       O      0.224740000000     0.511320000000     0.225220000000    -0.244299   
O10      O      0.214720000000     0.576120000000     0.207050000000    -0.244546   
O11      O      0.208380000000     0.495250000000     0.151830000000    -0.255506   
O12      O      0.268110000000     0.547370000000     0.143230000000    -0.245858   
O13      O      0.219530000000     0.565930000000     0.131550000000    -0.25378    
O14      O      0.163280000000     0.519560000000     0.151190000000    -0.248145   
O15      O      0.272530000000     0.522600000000     0.201710000000    -0.242334   
O16      O      0.166760000000     0.554650000000     0.206270000000    -0.244208   
O17      O      0.522410000000     0.772430000000     0.903320000000    -0.243111   
O18      O      0.424990000000     0.820200000000     0.927690000000    -0.247184   
O19      O      0.499450000000     0.803890000000     0.979470000000    -0.248855   
O20      O      0.467590000000     0.751100000000     0.970120000000    -0.250515   
O21      O      0.418540000000     0.770350000000     0.962490000000    -0.244486   
O22      O      0.512670000000     0.820850000000     0.934680000000    -0.245856   
O23      O      0.474480000000     0.752570000000     0.892820000000    -0.24896    
O24      O      0.436000000000     0.799580000000     0.884980000000    -0.249365   
O25      O      0.721860000000     0.087730000000     0.099810000000    -0.244806   
O26      O      0.734150000000     0.042960000000     0.197780000000    -0.242974   
O27      O      0.686200000000     0.040120000000     0.100240000000    -0.242851   
O28      O      0.660970000000     0.082650000000     0.165760000000    -0.249114   
O29      O      0.710610000000     0.097740000000     0.181200000000    -0.248752   
O30      O      0.671210000000     0.025560000000     0.145870000000    -0.251041   
O31      O      0.769490000000     0.075640000000     0.122950000000    -0.245982   
O32      O      0.762460000000     0.030810000000     0.156240000000    -0.248714   
O33      O      0.466710000000     0.252870000000     0.397850000000    -0.247105   
O34      O      0.408150000000     0.271070000000     0.455220000000    -0.243988   
O35      O      0.461290000000     0.318070000000     0.386700000000    -0.255185   
O36      O      0.465300000000     0.325880000000     0.469420000000    -0.25483    
O37      O      0.514860000000     0.308450000000     0.458190000000    -0.24577    
O38      O      0.410900000000     0.308590000000     0.406780000000    -0.245743   
O39      O      0.516020000000     0.269240000000     0.412060000000    -0.245016   
O40      O      0.456200000000     0.262280000000     0.479920000000    -0.25256    
O41      O      0.672800000000     0.569630000000     0.679390000000    -0.246137   
O42      O      0.670150000000     0.539970000000     0.621540000000    -0.243692   
O43      O      0.730750000000     0.524530000000     0.691250000000    -0.25508    
O44      O      0.775970000000     0.576380000000     0.625350000000    -0.243484   
O45      O      0.725880000000     0.587390000000     0.605900000000    -0.244405   
O46      O      0.778300000000     0.534300000000     0.666330000000    -0.243917   
O47      O      0.721450000000     0.589190000000     0.687940000000    -0.25515    
O48      O      0.718250000000     0.520920000000     0.609490000000    -0.245466   
O49      O      0.945440000000     0.826060000000     0.342720000000    -0.249405   
O50      O      0.017630000000     0.818990000000     0.426380000000    -0.247488   
O51      O      0.014200000000     0.792300000000     0.359080000000    -0.248699   
O52      O      0.912350000000     0.791780000000     0.419570000000    -0.249041   
O53      O      0.961370000000     0.781920000000     0.441820000000    -0.252171   
O54      O      0.967940000000     0.769130000000     0.361370000000    -0.254409   
O55      O      0.915340000000     0.835750000000     0.384360000000    -0.243838   
O56      O      0.987600000000     0.849870000000     0.408180000000    -0.24645    
O57      O      0.250930000000     0.018770000000     0.722760000000    -0.245138   
O58      O      0.279000000000     0.048220000000     0.645800000000    -0.248167   
O59      O      0.222440000000     0.071630000000     0.701840000000    -0.250278   
O60      O      0.201010000000     0.990490000000     0.658670000000    -0.250773   
O61      O      0.171590000000     0.021890000000     0.640960000000    -0.245305   
O62      O      0.177910000000     0.047130000000     0.707550000000    -0.251046   
O63      O      0.269840000000     0.999380000000     0.681250000000    -0.242609   
O64      O      0.230280000000     0.056160000000     0.621930000000    -0.245709   
O65      O      0.089280000000     0.898500000000     0.414210000000    -0.33545    
O66      O      0.041510000000     0.900330000000     0.383430000000    -0.236918   
O67      O      0.781460000000     0.600130000000     0.512610000000    -0.333843   
O68      O      0.724590000000     0.594310000000     0.523790000000    -0.231776   
O69      O      0.295800000000     0.068650000000     0.525240000000    -0.335956   
O70      O      0.243280000000     0.052210000000     0.536590000000    -0.237177   
O71      O      0.668330000000     0.502280000000     0.511500000000    -0.334279   
O72      O      0.723800000000     0.507410000000     0.527740000000    -0.231215   
O73      O      0.834330000000     0.030620000000     0.256410000000    -0.335368   
O74      O      0.786400000000     0.053860000000     0.264760000000    -0.23608    
O75      O      0.520810000000     0.178440000000     0.396590000000    -0.335326   
O76      O      0.463620000000     0.188020000000     0.397960000000    -0.239333   
O77      O      0.359690000000     0.002110000000     0.768960000000    -0.335367   
O78      O      0.320630000000     0.032790000000     0.775950000000    -0.236412   
O79      O      0.550560000000     0.763220000000     0.803330000000    -0.334936   
O80      O      0.576350000000     0.787780000000     0.839320000000    -0.237536   
O81      O      0.576940000000     0.016470000000     0.064210000000    -0.33517    
O82      O      0.614800000000     0.045430000000     0.047200000000    -0.235176   
O83      O      0.183720000000     0.604030000000     0.304350000000    -0.333416   
O84      O      0.235780000000     0.603230000000     0.279760000000    -0.232451   
O85      O      0.385600000000     0.747440000000     0.063570000000    -0.335254   
O86      O      0.368500000000     0.778670000000     0.032000000000    -0.235753   
O87      O      0.289960000000     0.504560000000     0.320740000000    -0.335155   
O88      O      0.234600000000     0.515270000000     0.309290000000    -0.232335   
O89      O      0.042990000000     0.252350000000     0.765260000000    -0.334453   
O90      O      0.064420000000     0.286770000000     0.788130000000    -0.23446    
O91      O      0.867370000000     0.277220000000     0.020430000000    -0.335742   
O92      O      0.856970000000     0.302490000000     0.979340000000    -0.233522   
O93      O      0.859720000000     0.326720000000     0.771210000000    -0.33536    
O94      O      0.850410000000     0.303510000000     0.814430000000    -0.233047   
O95      O      0.056450000000     0.407430000000     0.918080000000    -0.335012   
O96      O      0.999760000000     0.404930000000     0.904410000000    -0.237765   


