data_structure

_audit_creation_method RASPA-1.0
_audit_creation_date 2023-5-25
_audit_author_name 'Poobodin Mano'

_cell_length_a    44.284
_cell_length_b    46.0032
_cell_length_c    44.8303
_cell_angle_alpha 90
_cell_angle_beta  90
_cell_angle_gamma 90
_cell_volume      91328.5

_symmetry_cell_setting          triclinic
_symmetry_space_group_name_Hall 'P 1'
_symmetry_space_group_name_H-M  'P 1'
_symmetry_Int_Tables_number     1

_symmetry_equiv_pos_as_xyz 'x,y,z'

loop_
_atom_site_label
_atom_site_type_symbol
_atom_site_fract_x
_atom_site_fract_y
_atom_site_fract_z
_atom_site_charge
C1       C      0.917770000000     0.421820000000     0.897300000000     0.340832   
C2       C      0.834810000000     0.352960000000     0.909310000000     0.342521   
C3       C      0.843910000000     0.424070000000     0.830810000000     0.338146   
C4       C      0.901360000000     0.335320000000     0.836650000000     0.336456   
C5       C      0.101180000000     0.570430000000     0.096880000000     0.337254   
C6       C      0.174670000000     0.578060000000     0.173160000000     0.339213   
C7       C      0.166460000000     0.643440000000     0.084980000000     0.341115   
C8       C      0.107060000000     0.648100000000     0.172970000000     0.337269   
C9       C      0.348240000000     0.837850000000     0.935200000000     0.339125   
C10      C      0.345620000000     0.894000000000     0.841580000000     0.341111   
C11      C      0.417780000000     0.909840000000     0.914070000000     0.341459   
C12      C      0.411140000000     0.818140000000     0.856400000000     0.340951   
C13      C      0.687370000000     0.142280000000     0.074050000000     0.33877    
C14      C      0.614470000000     0.065590000000     0.092720000000     0.339396   
C15      C      0.685370000000     0.081400000000     0.161710000000     0.337494   
C16      C      0.618070000000     0.160170000000     0.143570000000     0.340555   
C17      C      0.420190000000     0.301510000000     0.331570000000     0.341509   
C18      C      0.355720000000     0.382570000000     0.327360000000     0.342421   
C19      C      0.344520000000     0.309950000000     0.402340000000     0.339697   
C20      C      0.425910000000     0.374870000000     0.406840000000     0.338408   
C21      C      0.643240000000     0.567180000000     0.646650000000     0.340726   
C22      C      0.580300000000     0.653300000000     0.657270000000     0.338209   
C23      C      0.652280000000     0.655590000000     0.589290000000     0.33877    
C24      C      0.573200000000     0.583090000000     0.577020000000     0.340494   
C25      C      0.927270000000     0.830770000000     0.345300000000     0.344712   
C26      C      0.846330000000     0.894950000000     0.347450000000     0.341685   
C27      C      0.849670000000     0.817800000000     0.414810000000     0.339613   
C28      C      0.913670000000     0.899820000000     0.427270000000     0.338805   
C29      C      0.089120000000     0.155540000000     0.669810000000     0.342908   
C30      C      0.174050000000     0.150130000000     0.605150000000     0.343872   
C31      C      0.164510000000     0.085350000000     0.683220000000     0.33862    
C32      C      0.099630000000     0.077170000000     0.599460000000     0.340326   
C33      C      0.048110000000     0.051840000000     0.539840000000    -0.0298169  
C34      C      0.963490000000     0.923600000000     0.488520000000    -0.0285678  
C35      C      0.926050000000     0.950020000000     0.442370000000    -0.0107335  
C36      C      0.935300000000     0.907690000000     0.477390000000    -0.0109307  
C37      C      0.975570000000     0.989680000000     0.524370000000    -0.0529831  
C38      C      0.035610000000     0.985700000000     0.505470000000    -0.0524161  
C39      C      0.982930000000     0.971410000000     0.500460000000     0.0627016  
C40      C      0.954660000000     0.964160000000     0.454840000000    -0.0285124  
C41      C      0.028250000000     0.003950000000     0.529400000000     0.0619174  
C42      C      0.055790000000     0.012630000000     0.575280000000    -0.042735   
C43      C      0.997950000000     0.005880000000     0.538760000000    -0.0549315  
C44      C      0.084480000000     0.026810000000     0.587830000000     0.0368714  
C45      C      0.076500000000     0.067790000000     0.550360000000    -0.00936302 
C46      C      0.013210000000     0.969560000000     0.491020000000    -0.0556949  
C47      C      0.780910000000     0.783750000000     0.445130000000    -0.0296722  
C48      C      0.723870000000     0.687330000000     0.562680000000    -0.0285758  
C49      C      0.659230000000     0.697200000000     0.555260000000    -0.0109304  
C50      C      0.702170000000     0.679400000000     0.587950000000    -0.0107012  
C51      C      0.743260000000     0.752070000000     0.528080000000    -0.0528918  
C52      C      0.764630000000     0.718880000000     0.480260000000    -0.0524905  
C53      C      0.733220000000     0.723410000000     0.524550000000     0.062741   
C54      C      0.682710000000     0.704420000000     0.531370000000    -0.0283515  
C55      C      0.774460000000     0.747630000000     0.483640000000     0.0621353  
C56      C      0.824040000000     0.768170000000     0.474600000000    -0.0428287  
C57      C      0.763710000000     0.764170000000     0.507860000000    -0.0551346  
C58      C      0.846310000000     0.776370000000     0.449710000000     0.0370896  
C59      C      0.800950000000     0.792200000000     0.418800000000    -0.00950665 
C60      C      0.744200000000     0.706770000000     0.500500000000    -0.0555894  
C61      C      0.206130000000     0.212490000000     0.564240000000    -0.0299667  
C62      C      0.313360000000     0.248000000000     0.444760000000    -0.0284037  
C63      C      0.298810000000     0.308910000000     0.433760000000    -0.0107117  
C64      C      0.323070000000     0.262190000000     0.415460000000    -0.010905   
C65      C      0.243820000000     0.233770000000     0.477220000000    -0.0528406  
C66      C      0.274880000000     0.227130000000     0.531110000000    -0.0525626  
C67      C      0.272540000000     0.246100000000     0.480500000000     0.0627041  
C68      C      0.290140000000     0.292700000000     0.462310000000    -0.0284205  
C69      C      0.246220000000     0.214670000000     0.527770000000     0.0620836  
C70      C      0.228040000000     0.167890000000     0.544870000000    -0.0429703  
C71      C      0.230650000000     0.218210000000     0.500610000000    -0.0551432  
C72      C      0.219250000000     0.150780000000     0.572950000000     0.037488   
C73      C      0.196740000000     0.197700000000     0.593340000000    -0.00898006 
C74      C      0.288000000000     0.242780000000     0.507750000000    -0.0556278  
C75      C      0.518490000000     0.527430000000     0.553960000000    -0.0299596  
C76      C      0.481490000000     0.429880000000     0.429400000000    -0.0285335  
C77      C      0.437770000000     0.391470000000     0.457920000000    -0.0110342  
C78      C      0.474250000000     0.400350000000     0.415420000000    -0.0108305  
C79      C      0.513200000000     0.451710000000     0.496320000000    -0.0528166  
C80      C      0.486730000000     0.506110000000     0.486770000000    -0.0525719  
C81      C      0.488710000000     0.454160000000     0.476720000000     0.0625338  
C82      C      0.446420000000     0.421340000000     0.470290000000    -0.0284715  
C83      C      0.511170000000     0.503650000000     0.506430000000     0.0620528  
C84      C      0.553210000000     0.536720000000     0.512990000000    -0.043052   
C85      C      0.524420000000     0.476180000000     0.511090000000    -0.0551797  
C86      C      0.562020000000     0.566510000000     0.525760000000     0.0371488  
C87      C      0.525350000000     0.556870000000     0.568280000000    -0.00927285 
C88      C      0.475520000000     0.481640000000     0.471980000000    -0.0555133  
C89      C      0.821060000000     0.940450000000     0.284040000000    -0.029759   
C90      C      0.702660000000     0.038560000000     0.229440000000    -0.0284216  
C91      C      0.734010000000     0.059820000000     0.176530000000    -0.0109169  
C92      C      0.691660000000     0.066350000000     0.214140000000    -0.011066   
C93      C      0.770700000000     0.018780000000     0.263480000000    -0.0528644  
C94      C      0.752280000000     0.961060000000     0.256230000000    -0.0526344  
C95      C      0.747980000000     0.012140000000     0.242840000000     0.0627544  
C96      C      0.743030000000     0.032250000000     0.193320000000    -0.0283419  
C97      C      0.775130000000     0.967690000000     0.276720000000     0.0621763  
C98      C      0.786350000000     0.947200000000     0.325350000000    -0.0428501  
C99      C      0.784280000000     0.996800000000     0.280280000000    -0.0552959  
C100     C      0.797180000000     0.919320000000     0.340840000000     0.037278   
C101     C      0.833310000000     0.912130000000     0.297090000000    -0.00919511 
C102     C      0.738800000000     0.983020000000     0.239320000000    -0.0557082  
C103     C      0.587870000000     0.200780000000     0.206030000000    -0.0300152  
C104     C      0.449190000000     0.267670000000     0.263370000000    -0.0285673  
C105     C      0.462550000000     0.266840000000     0.327070000000    -0.0104697  
C106     C      0.423660000000     0.271500000000     0.286010000000    -0.0107472  
C107     C      0.500530000000     0.212070000000     0.248590000000    -0.0528406  
C108     C      0.535000000000     0.253840000000     0.218650000000    -0.052575   
C109     C      0.495800000000     0.241590000000     0.254560000000     0.0628185  
C110     C      0.486650000000     0.263250000000     0.302900000000    -0.0286285  
C111     C      0.539680000000     0.224300000000     0.212650000000     0.0620358  
C112     C      0.550450000000     0.199610000000     0.166060000000    -0.0431701  
C113     C      0.522320000000     0.203390000000     0.227910000000    -0.0551022  
C114     C      0.574980000000     0.194460000000     0.142410000000     0.037543   
C115     C      0.613750000000     0.196540000000     0.183920000000    -0.00884518 
C116     C      0.513320000000     0.262510000000     0.239490000000    -0.055686   
C117     C      0.321690000000     0.954100000000     0.793310000000    -0.0299767  
C118     C      0.186130000000     0.024020000000     0.731230000000    -0.0285289  
C119     C      0.212540000000     0.078350000000     0.710220000000    -0.0108239  
C120     C      0.165720000000     0.050160000000     0.724860000000    -0.0107558  
C121     C      0.244500000000     0.011000000000     0.781070000000    -0.0527682  
C122     C      0.262830000000     0.965660000000     0.743650000000    -0.0524941  
C123     C      0.234940000000     0.010630000000     0.751310000000     0.0627435  
C124     C      0.231100000000     0.051130000000     0.717060000000    -0.028486   
C125     C      0.272530000000     0.966120000000     0.773380000000     0.0620811  
C126     C      0.277640000000     0.925590000000     0.807430000000    -0.043002   
C127     C      0.263110000000     0.988970000000     0.792130000000    -0.0551411  
C128     C      0.297150000000     0.898940000000     0.814730000000     0.0372494  
C129     C      0.343020000000     0.928670000000     0.799570000000    -0.00915659 
C130     C      0.244170000000     0.987680000000     0.732610000000    -0.05556    
C131     C      0.475160000000     0.776970000000     0.826010000000    -0.0300406  
C132     C      0.516580000000     0.691870000000     0.693430000000    -0.0282676  
C133     C      0.581690000000     0.685670000000     0.701040000000    -0.0109718  
C134     C      0.536230000000     0.684740000000     0.666350000000    -0.0110533  
C135     C      0.511350000000     0.751200000000     0.739890000000    -0.0528375  
C136     C      0.482080000000     0.715360000000     0.781170000000    -0.0525611  
C137     C      0.515200000000     0.721030000000     0.738240000000     0.0626811  
C138     C      0.559950000000     0.692860000000     0.726510000000    -0.0283929  
C139     C      0.478260000000     0.745550000000     0.782830000000     0.0620407  
C140     C      0.431850000000     0.771390000000     0.793070000000    -0.0430083  
C141     C      0.493010000000     0.763450000000     0.761920000000    -0.0551691  
C142     C      0.409700000000     0.779640000000     0.818000000000     0.0373481  
C143     C      0.454970000000     0.785130000000     0.852400000000    -0.00911975 
C144     C      0.500340000000     0.703110000000     0.759050000000    -0.0556199  
C145     C      0.487430000000     0.943330000000     0.941930000000    -0.030007   
C146     C      0.545290000000     0.030540000000     0.066970000000    -0.0286572  
C147     C      0.610180000000     0.023360000000     0.058850000000    -0.0108621  
C148     C      0.566940000000     0.037320000000     0.092660000000    -0.0107237  
C149     C      0.527650000000     0.968600000000     0.026550000000    -0.0529617  
C150     C      0.505000000000     0.005410000000     0.982220000000    -0.0523468  
C151     C      0.536990000000     0.997660000000     0.025650000000     0.0626594  
C152     C      0.587050000000     0.017090000000     0.034320000000    -0.028443   
C153     C      0.495680000000     0.976330000000     0.983110000000     0.0619954  
C154     C      0.445660000000     0.956850000000     0.974400000000    -0.043123   
C155     C      0.507160000000     0.957930000000     0.005520000000    -0.0551366  
C156     C      0.422340000000     0.950410000000     0.949940000000     0.0373767  
C157     C      0.466040000000     0.936730000000     0.916000000000    -0.0090979  
C158     C      0.525490000000     0.016080000000     0.003260000000    -0.0555962  
C159     C      0.958180000000     0.771400000000     0.298560000000    -0.0299231  
C160     C      0.088630000000     0.714010000000     0.217140000000    -0.0285069  
C161     C      0.063590000000     0.656320000000     0.206110000000    -0.0110472  
C162     C      0.109750000000     0.689170000000     0.208160000000    -0.0108937  
C163     C      0.040200000000     0.724610000000     0.278020000000    -0.052903   
C164     C      0.010990000000     0.766660000000     0.243430000000    -0.0526928  
C165     C      0.044430000000     0.724860000000     0.247060000000     0.062634   
C166     C      0.044600000000     0.682670000000     0.214990000000    -0.0282383  
C167     C      0.006420000000     0.766160000000     0.274340000000     0.0621591  
C168     C      0.998670000000     0.805030000000     0.310290000000    -0.0426554  
C169     C      0.021310000000     0.745010000000     0.291640000000    -0.0552232  
C170     C      0.976350000000     0.829080000000     0.319250000000     0.037112   
C171     C      0.933900000000     0.793700000000     0.306350000000    -0.00901464 
C172     C      0.029760000000     0.746180000000     0.229790000000    -0.0555315  
C173     C      0.230400000000     0.676830000000     0.046760000000    -0.0299211  
C174     C      0.281300000000     0.810420000000     0.972640000000    -0.0287379  
C175     C      0.346340000000     0.800970000000     0.975330000000    -0.0106617  
C176     C      0.303070000000     0.835800000000     0.967660000000    -0.0107343  
C177     C      0.267230000000     0.762930000000     0.031510000000    -0.0529742  
C178     C      0.241230000000     0.725530000000     0.989550000000    -0.052347   
C179     C      0.274190000000     0.766300000000     0.001240000000     0.0627454  
C180     C      0.323220000000     0.776690000000     0.979980000000    -0.0287279  
C181     C      0.234370000000     0.722080000000     0.019840000000     0.0619876  
C182     C      0.187010000000     0.709270000000     0.043580000000    -0.0431302  
C183     C      0.247530000000     0.741010000000     0.040840000000    -0.0550586  
C184     C      0.164860000000     0.684080000000     0.048840000000     0.0374548  
C185     C      0.210130000000     0.650330000000     0.051420000000    -0.00907014 
C186     C      0.260990000000     0.747400000000     0.980230000000    -0.0555524  
C187     C      0.334970000000     0.451340000000     0.289680000000    -0.0300097  
C188     C      0.202510000000     0.515570000000     0.216390000000    -0.0285373  
C189     C      0.221450000000     0.574830000000     0.202910000000    -0.0107968  
C190     C      0.178710000000     0.538950000000     0.210560000000    -0.010709   
C191     C      0.255770000000     0.504540000000     0.270690000000    -0.0529651  
C192     C      0.284920000000     0.466720000000     0.231240000000    -0.052555   
C193     C      0.250690000000     0.507190000000     0.239980000000     0.062671   
C194     C      0.243550000000     0.550010000000     0.209200000000    -0.0285425  
C195     C      0.289840000000     0.463950000000     0.261960000000     0.0621283  
C196     C      0.291810000000     0.418760000000     0.289290000000    -0.0428952  
C197     C      0.275110000000     0.483080000000     0.281700000000    -0.0552132  
C198     C      0.311680000000     0.392100000000     0.295240000000     0.0373094  
C199     C      0.356970000000     0.426330000000     0.295590000000    -0.0092672  
C200     C      0.265480000000     0.488100000000     0.220240000000    -0.055591   
C201     C      0.052380000000     0.196050000000     0.731820000000    -0.0297332  
C202     C      0.926580000000     0.292390000000     0.772050000000    -0.0285939  
C203     C      0.935740000000     0.293080000000     0.836460000000    -0.0109396  
C204     C      0.901260000000     0.303000000000     0.792610000000    -0.0109697  
C205     C      0.965540000000     0.226610000000     0.764370000000    -0.0529335  
C206     C      0.010460000000     0.258470000000     0.735170000000    -0.0525719  
C207     C      0.966750000000     0.256840000000     0.768020000000     0.0624846  
C208     C      0.959780000000     0.283030000000     0.814240000000    -0.0284747  
C209     C      0.009340000000     0.228250000000     0.731640000000     0.0620404  
C210     C      0.019690000000     0.197800000000     0.688530000000    -0.0426948  
C211     C      0.986660000000     0.212330000000     0.746420000000    -0.0551532  
C212     C      0.045220000000     0.188420000000     0.667440000000     0.0368511  
C213     C      0.079680000000     0.186910000000     0.713200000000    -0.00937216 
C214     C      0.989450000000     0.272730000000     0.753240000000    -0.0554129  
C215     C      0.814550000000     0.303240000000     0.969790000000    -0.0299898  
C216     C      0.703820000000     0.191370000000     0.011970000000    -0.0286898  
C217     C      0.736700000000     0.163650000000     0.060600000000    -0.0108977  
C218     C      0.694380000000     0.161170000000     0.022860000000    -0.0108701  
C219     C      0.769630000000     0.219900000000     0.980950000000    -0.0529965  
C220     C      0.748530000000     0.274630000000     0.998400000000    -0.0523419  
C221     C      0.747420000000     0.221950000000     0.003090000000     0.0627959  
C222     C      0.744490000000     0.193800000000     0.048530000000    -0.0284683  
C223     C      0.770760000000     0.272580000000     0.976280000000     0.0619798  
C224     C      0.776270000000     0.300550000000     0.930870000000    -0.0430486  
C225     C      0.781290000000     0.244940000000     0.967620000000    -0.0550461  
C226     C      0.784970000000     0.330580000000     0.918710000000     0.0372     
C227     C      0.824510000000     0.333500000000     0.959660000000    -0.00908525 
C228     C      0.736940000000     0.249580000000     0.011800000000    -0.0557443  
C229     C      0.676850000000     0.529940000000     0.710060000000    -0.030005   
C230     C      0.814370000000     0.455430000000     0.761400000000    -0.0285605  
C231     C      0.804080000000     0.461200000000     0.825360000000    -0.0108144  
C232     C      0.840620000000     0.451120000000     0.783230000000    -0.0108832  
C233     C      0.766360000000     0.513500000000     0.745210000000    -0.052849   
C234     C      0.726100000000     0.472830000000     0.721360000000    -0.0525306  
C235     C      0.769260000000     0.484140000000     0.752900000000     0.0627965  
C236     C      0.779220000000     0.464870000000     0.802050000000    -0.0282704  
C237     C      0.723000000000     0.502240000000     0.713930000000     0.0620651  
C238     C      0.709390000000     0.523960000000     0.666590000000    -0.0431207  
C239     C      0.743470000000     0.522580000000     0.725900000000    -0.0550462  
C240     C      0.682930000000     0.529350000000     0.645160000000     0.0375713  
C241     C      0.649110000000     0.534980000000     0.690440000000    -0.00897841 
C242     C      0.748990000000     0.463750000000     0.740700000000    -0.0555891  
C243     C      0.988260000000     0.444300000000     0.934170000000    -0.0298359  
C244     C      0.036040000000     0.544170000000     0.053250000000    -0.0284127  
C245     C      0.097710000000     0.525940000000     0.066290000000    -0.0109051  
C246     C      0.050550000000     0.552710000000     0.082930000000    -0.0110584  
C247     C      0.016660000000     0.478560000000     0.020890000000    -0.0529447  
C248     C      0.013400000000     0.508640000000     0.966780000000    -0.0525616  
C249     C      0.032180000000     0.504900000000     0.017650000000     0.0626405  
C250     C      0.081220000000     0.518520000000     0.037260000000    -0.0284798  
C251     C      0.997480000000     0.482550000000     0.970190000000     0.0620499  
C252     C      0.946400000000     0.472280000000     0.954430000000    -0.0428617  
C253     C      0.999460000000     0.467380000000     0.997410000000    -0.0548497  
C254     C      0.926690000000     0.466140000000     0.927030000000     0.0372247  
C255     C      0.970580000000     0.437150000000     0.905730000000    -0.00920114 
C256     C      0.030690000000     0.519780000000     0.990230000000    -0.0555057  
Cd1      Cd     0.874810000000     0.383280000000     0.868920000000     0.505958   
Cd2      Cd     0.137620000000     0.610110000000     0.131510000000     0.506213   
Cd3      Cd     0.380910000000     0.865170000000     0.886960000000     0.506027   
Cd4      Cd     0.650640000000     0.112140000000     0.117380000000     0.505999   
Cd5      Cd     0.386770000000     0.342920000000     0.366960000000     0.505679   
Cd6      Cd     0.612110000000     0.614470000000     0.617510000000     0.506386   
Cd7      Cd     0.885860000000     0.860880000000     0.384510000000     0.505708   
Cd8      Cd     0.130530000000     0.117080000000     0.639060000000     0.50561    
H1       H      0.019500000000     0.955710000000     0.472530000000     0.0436113  
H2       H      0.044380000000     0.057130000000     0.515890000000     0.0373592  
H3       H      0.057330000000     0.988600000000     0.577910000000     0.0425118  
H4       H      0.906130000000     0.959670000000     0.453780000000     0.0429856  
H5       H      0.095130000000     0.063200000000     0.534410000000     0.0426261  
H6       H      0.967390000000     0.917440000000     0.512220000000     0.0375191  
H7       H      0.952030000000     0.988190000000     0.453460000000     0.0373341  
H8       H      0.939930000000     0.883930000000     0.477300000000     0.0486789  
H9       H      0.084390000000     0.023420000000     0.612390000000     0.0404199  
H10      H      0.058800000000     0.984050000000     0.497990000000     0.0464252  
H11      H      0.072070000000     0.091570000000     0.549660000000     0.0479961  
H12      H      0.952370000000     0.991390000000     0.531810000000     0.0471208  
H13      H      0.028280000000     0.059860000000     0.552730000000     0.0408114  
H14      H      0.924280000000     0.955350000000     0.418230000000     0.0481479  
H15      H      0.983360000000     0.916360000000     0.475220000000     0.0412584  
H16      H      0.974320000000     0.957780000000     0.440800000000     0.0413943  
H17      H      0.991640000000     0.019880000000     0.557130000000     0.0431719  
H18      H      0.036050000000     0.020130000000     0.588620000000     0.0431728  
H19      H      0.916570000000     0.911710000000     0.493390000000     0.0429921  
H20      H      0.116950000000     0.009100000000     0.542980000000     0.0392809  
H21      H      0.736820000000     0.684570000000     0.497290000000     0.0436599  
H22      H      0.758460000000     0.777070000000     0.436290000000     0.0374863  
H23      H      0.833630000000     0.750020000000     0.488040000000     0.042555   
H24      H      0.653530000000     0.717460000000     0.567560000000     0.042928   
H25      H      0.800500000000     0.774290000000     0.402150000000     0.0426692  
H26      H      0.746040000000     0.693300000000     0.572650000000     0.0373479  
H27      H      0.674240000000     0.723130000000     0.518020000000     0.0375308  
H28      H      0.710660000000     0.659450000000     0.599180000000     0.0483213  
H29      H      0.866600000000     0.786000000000     0.460480000000     0.0405812  
H30      H      0.772690000000     0.705930000000     0.461730000000     0.0464679  
H31      H      0.791150000000     0.811780000000     0.407950000000     0.0489591  
H32      H      0.735020000000     0.765100000000     0.546480000000     0.0471583  
H33      H      0.777590000000     0.803080000000     0.459740000000     0.041167   
H34      H      0.638310000000     0.689440000000     0.544080000000     0.0489979  
H35      H      0.727280000000     0.667990000000     0.548130000000     0.0412966  
H36      H      0.685290000000     0.685430000000     0.516170000000     0.0414415  
H37      H      0.770920000000     0.786440000000     0.510960000000     0.0432959  
H38      H      0.821310000000     0.787170000000     0.489770000000     0.0433358  
H39      H      0.702290000000     0.697270000000     0.604650000000     0.0430208  
H40      H      0.834140000000     0.729060000000     0.420200000000     0.0390173  
H41      H      0.310180000000     0.252160000000     0.510890000000     0.0433179  
H42      H      0.210540000000     0.235860000000     0.568990000000     0.0373469  
H43      H      0.248640000000     0.158050000000     0.534790000000     0.0425231  
H44      H      0.278850000000     0.309490000000     0.418710000000     0.0439895  
H45      H      0.213730000000     0.202920000000     0.610790000000     0.0426498  
H46      H      0.309510000000     0.224430000000     0.440600000000     0.0374431  
H47      H      0.268980000000     0.302440000000     0.471230000000     0.0373055  
H48      H      0.345360000000     0.253130000000     0.408820000000     0.0482161  
H49      H      0.211810000000     0.128810000000     0.565660000000     0.0402254  
H50      H      0.287060000000     0.224630000000     0.551900000000     0.0462923  
H51      H      0.174790000000     0.207040000000     0.600660000000     0.0477362  
H52      H      0.231650000000     0.236210000000     0.456410000000     0.0473311  
H53      H      0.187180000000     0.211120000000     0.547960000000     0.0411455  
H54      H      0.304600000000     0.331730000000     0.439620000000     0.0484051  
H55      H      0.331950000000     0.250170000000     0.461340000000     0.040818   
H56      H      0.308270000000     0.295690000000     0.479260000000     0.0407701  
H57      H      0.208430000000     0.208910000000     0.497490000000     0.0433546  
H58      H      0.209470000000     0.165880000000     0.528230000000     0.0433793  
H59      H      0.306510000000     0.256220000000     0.397850000000     0.0438483  
H60      H      0.264630000000     0.172040000000     0.602740000000     0.0389311  
H61      H      0.456600000000     0.484140000000     0.456910000000     0.0433334  
H62      H      0.494880000000     0.521280000000     0.559710000000     0.0374057  
H63      H      0.555580000000     0.537140000000     0.488260000000     0.0426413  
H64      H      0.451070000000     0.374620000000     0.469910000000     0.0428535  
H65      H      0.507230000000     0.572430000000     0.561960000000     0.0427149  
H66      H      0.505220000000     0.435630000000     0.423740000000     0.0374063  
H67      H      0.444120000000     0.420750000000     0.495010000000     0.037227   
H68      H      0.475210000000     0.402490000000     0.390730000000     0.048638   
H69      H      0.586620000000     0.569480000000     0.521810000000     0.0407789  
H70      H      0.476340000000     0.527100000000     0.482950000000     0.046284   
H71      H      0.524630000000     0.554330000000     0.592930000000     0.0481829  
H72      H      0.523580000000     0.430720000000     0.500160000000     0.0471063  
H73      H      0.533930000000     0.510750000000     0.563510000000     0.0411221  
H74      H      0.413480000000     0.387480000000     0.462670000000     0.0480646  
H75      H      0.466360000000     0.446680000000     0.419560000000     0.0412222  
H76      H      0.430440000000     0.437930000000     0.461440000000     0.0410423  
H77      H      0.543350000000     0.473680000000     0.526130000000     0.0433966  
H78      H      0.569250000000     0.520100000000     0.521680000000     0.0438394  
H79      H      0.491980000000     0.384580000000     0.422250000000     0.0431294  
H80      H      0.512560000000     0.589720000000     0.505220000000     0.0389628  
H81      H      0.721500000000     0.977280000000     0.223340000000     0.0431694  
H82      H      0.823000000000     0.939280000000     0.259300000000     0.0372328  
H83      H      0.762400000000     0.951490000000     0.331520000000     0.042439   
H84      H      0.749050000000     0.077870000000     0.183720000000     0.0443817  
H85      H      0.822370000000     0.893560000000     0.285470000000     0.042844   
H86      H      0.697340000000     0.040120000000     0.253660000000     0.0372567  
H87      H      0.767790000000     0.029010000000     0.190590000000     0.0373458  
H88      H      0.666600000000     0.067130000000     0.215480000000     0.0478893  
H89      H      0.798270000000     0.923830000000     0.365190000000     0.0401924  
H90      H      0.745180000000     0.938740000000     0.253130000000     0.046318   
H91      H      0.857930000000     0.910940000000     0.292350000000     0.0477627  
H92      H      0.778110000000     0.041050000000     0.266260000000     0.0472314  
H93      H      0.835160000000     0.958960000000     0.291970000000     0.0408419  
H94      H      0.737820000000     0.056240000000     0.152280000000     0.0485849  
H95      H      0.690160000000     0.019640000000     0.220080000000     0.0401334  
H96      H      0.731240000000     0.013230000000     0.183270000000     0.0405933  
H97      H      0.802070000000     0.002460000000     0.295770000000     0.0432186  
H98      H      0.800050000000     0.965810000000     0.333690000000     0.0429169  
H99      H      0.700610000000     0.085390000000     0.226610000000     0.0441254  
H100     H      0.765400000000     0.886140000000     0.305860000000     0.0390846  
H101     H      0.510280000000     0.285450000000     0.243870000000     0.0435683  
H102     H      0.596440000000     0.213710000000     0.225240000000     0.0374047  
H103     H      0.531210000000     0.211590000000     0.155800000000     0.0426639  
H104     H      0.455860000000     0.244910000000     0.335160000000     0.0432622  
H105     H      0.623350000000     0.218190000000     0.178310000000     0.0412718  
H106     H      0.439790000000     0.257020000000     0.243100000000     0.0375639  
H107     H      0.505070000000     0.249330000000     0.311940000000     0.0373723  
H108     H      0.406650000000     0.286730000000     0.276590000000     0.0486271  
H109     H      0.565500000000     0.179270000000     0.125550000000     0.0409421  
H110     H      0.548330000000     0.270140000000     0.207240000000     0.0461569  
H111     H      0.631850000000     0.183700000000     0.194950000000     0.0484415  
H112     H      0.487340000000     0.195750000000     0.260150000000     0.047289   
H113     H      0.580480000000     0.179160000000     0.214500000000     0.0426151  
H114     H      0.472550000000     0.278850000000     0.346190000000     0.048278   
H115     H      0.457910000000     0.289480000000     0.256900000000     0.0412287  
H116     H      0.496360000000     0.284930000000     0.297400000000     0.041481   
H117     H      0.525690000000     0.180420000000     0.223940000000     0.0438003  
H118     H      0.541790000000     0.178100000000     0.173560000000     0.0445739  
H119     H      0.412420000000     0.250130000000     0.289330000000     0.0433272  
H120     H      0.587860000000     0.249760000000     0.143290000000     0.0386367  
H121     H      0.237090000000     0.986890000000     0.709520000000     0.0437676  
H122     H      0.331780000000     0.967690000000     0.775350000000     0.0374415  
H123     H      0.254820000000     0.918260000000     0.800160000000     0.0426968  
H124     H      0.213550000000     0.093060000000     0.729870000000     0.0432549  
H125     H      0.348260000000     0.917640000000     0.778120000000     0.0420836  
H126     H      0.175570000000     0.010830000000     0.749250000000     0.0375586  
H127     H      0.253970000000     0.058030000000     0.724520000000     0.0375566  
H128     H      0.143890000000     0.042160000000     0.715760000000     0.0490433  
H129     H      0.287170000000     0.888350000000     0.834730000000     0.0413768  
H130     H      0.269840000000     0.948200000000     0.729010000000     0.0464378  
H131     H      0.364560000000     0.937430000000     0.808590000000     0.0477725  
H132     H      0.237570000000     0.028510000000     0.795700000000     0.0472997  
H133     H      0.319740000000     0.967680000000     0.813790000000     0.0414724  
H134     H      0.223090000000     0.089890000000     0.691080000000     0.0490482  
H135     H      0.187660000000     0.010290000000     0.710820000000     0.0416592  
H136     H      0.233640000000     0.038090000000     0.696280000000     0.0417507  
H137     H      0.270220000000     0.989810000000     0.815200000000     0.0436471  
H138     H      0.274670000000     0.938660000000     0.828140000000     0.0442025  
H139     H      0.160920000000     0.061450000000     0.746270000000     0.0433144  
H140     H      0.301740000000     0.886180000000     0.758290000000     0.0387399  
H141     H      0.502780000000     0.679720000000     0.758130000000     0.0433504  
H142     H      0.495730000000     0.766040000000     0.834810000000     0.0374704  
H143     H      0.420410000000     0.756490000000     0.777060000000     0.0425804  
H144     H      0.592720000000     0.706110000000     0.693520000000     0.0432478  
H145     H      0.451510000000     0.765490000000     0.866450000000     0.042288   
H146     H      0.496510000000     0.704300000000     0.685600000000     0.0373955  
H147     H      0.572290000000     0.706060000000     0.743370000000     0.037297   
H148     H      0.523590000000     0.669560000000     0.651630000000     0.0486333  
H149     H      0.391490000000     0.792950000000     0.807730000000     0.040517   
H150     H      0.470740000000     0.701330000000     0.797000000000     0.0462536  
H151     H      0.466950000000     0.801520000000     0.866260000000     0.0485079  
H152     H      0.522520000000     0.765230000000     0.723940000000     0.0473025  
H153     H      0.482280000000     0.797200000000     0.814320000000     0.0413846  
H154     H      0.599680000000     0.671090000000     0.709740000000     0.048149   
H155     H      0.508500000000     0.671270000000     0.703780000000     0.0408592  
H156     H      0.552520000000     0.672290000000     0.737350000000     0.0405627  
H157     H      0.490270000000     0.786810000000     0.762550000000     0.0434826  
H158     H      0.438160000000     0.791430000000     0.780590000000     0.0438933  
H159     H      0.540240000000     0.705080000000     0.653550000000     0.0438559  
H160     H      0.413620000000     0.727740000000     0.840930000000     0.0387789  
H161     H      0.532340000000     0.038630000000     0.002050000000     0.0438992  
H162     H      0.509410000000     0.950700000000     0.932560000000     0.0374816  
H163     H      0.436730000000     0.974090000000     0.989450000000     0.0426078  
H164     H      0.615930000000     0.002550000000     0.070110000000     0.0420696  
H165     H      0.465500000000     0.955880000000     0.900880000000     0.042292   
H166     H      0.523490000000     0.022970000000     0.076590000000     0.0374427  
H167     H      0.596160000000     0.999580000000     0.019730000000     0.0373934  
H168     H      0.557610000000     0.055700000000     0.105860000000     0.0484298  
H169     H      0.402360000000     0.940430000000     0.960940000000     0.0402551  
H170     H      0.496320000000     0.019810000000     0.965140000000     0.0464046  
H171     H      0.475330000000     0.918130000000     0.903090000000     0.0484088  
H172     H      0.536310000000     0.954190000000     0.043630000000     0.047006   
H173     H      0.491430000000     0.923000000000     0.954830000000     0.0414735  
H174     H      0.631130000000     0.031930000000     0.048400000000     0.0485944  
H175     H      0.540950000000     0.050830000000     0.054110000000     0.0420468  
H176     H      0.583960000000     0.037000000000     0.020510000000     0.0420191  
H177     H      0.500310000000     0.935380000000     0.006730000000     0.043371   
H178     H      0.448880000000     0.936870000000     0.988060000000     0.0437614  
H179     H      0.568120000000     0.018010000000     0.107530000000     0.0420724  
H180     H      0.433960000000     0.999890000000     0.924110000000     0.0389402  
H181     H      0.032430000000     0.746690000000     0.205800000000     0.0433145  
H182     H      0.948900000000     0.756530000000     0.281240000000     0.0373745  
H183     H      0.019930000000     0.815050000000     0.301880000000     0.042415   
H184     H      0.067600000000     0.642780000000     0.226280000000     0.0437277  
H185     H      0.925240000000     0.803470000000     0.285340000000     0.0430901  
H186     H      0.101480000000     0.729500000000     0.231380000000     0.0372775  
H187     H      0.024510000000     0.674800000000     0.227560000000     0.0373658  
H188     H      0.127700000000     0.698030000000     0.193370000000     0.0477528  
H189     H      0.985660000000     0.840190000000     0.339280000000     0.0394726  
H190     H      0.999470000000     0.782650000000     0.229840000000     0.04651    
H191     H      0.914760000000     0.782140000000     0.317170000000     0.0477686  
H192     H      0.051160000000     0.708210000000     0.291530000000     0.0472601  
H193     H      0.963590000000     0.758240000000     0.318730000000     0.0409073  
H194     H      0.050440000000     0.642980000000     0.190010000000     0.0490547  
H195     H      0.081190000000     0.725760000000     0.196710000000     0.0403917  
H196     H      0.036510000000     0.693920000000     0.194490000000     0.0409735  
H197     H      0.017910000000     0.743940000000     0.315510000000     0.0432723  
H198     H      0.004530000000     0.792140000000     0.330510000000     0.0427337  
H199     H      0.120930000000     0.680620000000     0.228560000000     0.0433295  
H200     H      0.965070000000     0.842920000000     0.264110000000     0.039225   
H201     H      0.266110000000     0.749440000000     0.956720000000     0.044081   
H202     H      0.251320000000     0.669590000000     0.035170000000     0.0374786  
H203     H      0.175850000000     0.726280000000     0.029770000000     0.0426488  
H204     H      0.353250000000     0.809420000000     0.997550000000     0.0421599  
H205     H      0.206990000000     0.639250000000     0.029610000000     0.041791   
H206     H      0.260190000000     0.819050000000     0.982810000000     0.0377413  
H207     H      0.333050000000     0.760380000000     0.995540000000     0.0374326  
H208     H      0.292920000000     0.851060000000     0.951260000000     0.0494106  
H209     H      0.146230000000     0.692490000000     0.063060000000     0.0404621  
H210     H      0.231370000000     0.711050000000     0.973180000000     0.046415   
H211     H      0.221890000000     0.634860000000     0.066520000000     0.0487801  
H212     H      0.277290000000     0.777230000000     0.047920000000     0.0471095  
H213     H      0.236880000000     0.685880000000     0.068900000000     0.0421372  
H214     H      0.366700000000     0.791720000000     0.964370000000     0.0482337  
H215     H      0.275520000000     0.800600000000     0.950670000000     0.0424149  
H216     H      0.318800000000     0.765780000000     0.958240000000     0.0422179  
H217     H      0.242770000000     0.738710000000     0.064400000000     0.0435471  
H218     H      0.192610000000     0.719240000000     0.065530000000     0.0440964  
H219     H      0.305820000000     0.847650000000     0.989100000000     0.042611   
H220     H      0.170170000000     0.668260000000     0.993260000000     0.0388734  
H221     H      0.261730000000     0.489510000000     0.196430000000     0.0435278  
H222     H      0.347080000000     0.468510000000     0.276910000000     0.0371902  
H223     H      0.271380000000     0.411950000000     0.276570000000     0.0425324  
H224     H      0.218550000000     0.587770000000     0.223670000000     0.0428696  
H225     H      0.367930000000     0.420170000000     0.274190000000     0.0425908  
H226     H      0.192730000000     0.499230000000     0.231960000000     0.0373683  
H227     H      0.264290000000     0.559320000000     0.219480000000     0.0373443  
H228     H      0.159320000000     0.528830000000     0.198700000000     0.0481697  
H229     H      0.299110000000     0.377700000000     0.310830000000     0.0404118  
H230     H      0.295910000000     0.451990000000     0.215840000000     0.0464137  
H231     H      0.375010000000     0.434200000000     0.310840000000     0.047027   
H232     H      0.244380000000     0.518950000000     0.286130000000     0.0470194  
H233     H      0.327680000000     0.460770000000     0.311390000000     0.0401477  
H234     H      0.231480000000     0.589360000000     0.185730000000     0.0485394  
H235     H      0.208030000000     0.504390000000     0.195040000000     0.0413972  
H236     H      0.249980000000     0.539580000000     0.187710000000     0.0410743  
H237     H      0.278270000000     0.481200000000     0.305560000000     0.0430727  
H238     H      0.283980000000     0.427760000000     0.311030000000     0.0434085  
H239     H      0.170310000000     0.547160000000     0.232360000000     0.0427478  
H240     H      0.329180000000     0.389630000000     0.239860000000     0.0389242  
H241     H      0.991100000000     0.296060000000     0.755890000000     0.0435933  
H242     H      0.060680000000     0.208410000000     0.751540000000     0.037213   
H243     H      0.003060000000     0.211290000000     0.676040000000     0.0424397  
H244     H      0.923880000000     0.273610000000     0.845340000000     0.0422252  
H245     H      0.094270000000     0.206250000000     0.709500000000     0.0435634  
H246     H      0.916160000000     0.282600000000     0.751810000000     0.0373744  
H247     H      0.974100000000     0.266320000000     0.825310000000     0.037235   
H248     H      0.888860000000     0.320870000000     0.781250000000     0.0485583  
H249     H      0.035550000000     0.172820000000     0.651070000000     0.0394345  
H250     H      0.027920000000     0.270950000000     0.724110000000     0.0465429  
H251     H      0.093070000000     0.170890000000     0.726250000000     0.0472144  
H252     H      0.948340000000     0.214090000000     0.775760000000     0.0468357  
H253     H      0.040430000000     0.176300000000     0.740050000000     0.0401234  
H254     H      0.947150000000     0.304020000000     0.855490000000     0.0486544  
H255     H      0.940400000000     0.311390000000     0.764960000000     0.0413276  
H256     H      0.974420000000     0.301820000000     0.808210000000     0.0416749  
H257     H      0.985480000000     0.188930000000     0.744290000000     0.0429671  
H258     H      0.007600000000     0.178040000000     0.696500000000     0.0423077  
H259     H      0.885110000000     0.284830000000     0.796180000000     0.0424864  
H260     H      0.069410000000     0.239890000000     0.665790000000     0.0394477  
H261     H      0.719940000000     0.251770000000     0.028990000000     0.0436328  
H262     H      0.818540000000     0.301440000000     0.994240000000     0.0373942  
H263     H      0.751910000000     0.296420000000     0.926330000000     0.0425086  
H264     H      0.751790000000     0.147450000000     0.049800000000     0.0433067  
H265     H      0.813310000000     0.349980000000     0.974050000000     0.0424321  
H266     H      0.698400000000     0.193100000000     0.987790000000     0.0375808  
H267     H      0.769170000000     0.197420000000     0.051460000000     0.0374111  
H268     H      0.669440000000     0.159140000000     0.020940000000     0.0484871  
H269     H      0.783190000000     0.329560000000     0.893990000000     0.0404344  
H270     H      0.740290000000     0.295750000000     0.005310000000     0.0462616  
H271     H      0.849280000000     0.335540000000     0.963120000000     0.047754   
H272     H      0.777990000000     0.198800000000     0.974140000000     0.0471077  
H273     H      0.828670000000     0.286590000000     0.958360000000     0.0411373  
H274     H      0.741350000000     0.163250000000     0.084970000000     0.0488879  
H275     H      0.690450000000     0.208100000000     0.024140000000     0.0413985  
H276     H      0.732210000000     0.210550000000     0.061750000000     0.0414905  
H277     H      0.798530000000     0.242750000000     0.950660000000     0.0431227  
H278     H      0.789480000000     0.283750000000     0.918640000000     0.0434065  
H279     H      0.704740000000     0.144610000000     0.007980000000     0.043094   
H280     H      0.754730000000     0.355800000000     0.961340000000     0.0389773  
H281     H      0.750640000000     0.440950000000     0.746410000000     0.0437379  
H282     H      0.669310000000     0.519620000000     0.731250000000     0.0375215  
H283     H      0.726160000000     0.509380000000     0.655690000000     0.0426316  
H284     H      0.812720000000     0.483090000000     0.831530000000     0.0434024  
H285     H      0.636640000000     0.514110000000     0.688250000000     0.0415161  
H286     H      0.823580000000     0.464170000000     0.740110000000     0.037461   
H287     H      0.762240000000     0.480520000000     0.810870000000     0.0376964  
H288     H      0.855890000000     0.434030000000     0.774290000000     0.0485316  
H289     H      0.691860000000     0.541970000000     0.625940000000     0.0410446  
H290     H      0.710510000000     0.456960000000     0.712350000000     0.0462571  
H291     H      0.633920000000     0.550690000000     0.701830000000     0.048332   
H292     H      0.781700000000     0.529430000000     0.754530000000     0.0473363  
H293     H      0.687270000000     0.551320000000     0.715530000000     0.0422801  
H294     H      0.794090000000     0.451300000000     0.845720000000     0.0499525  
H295     H      0.803740000000     0.433970000000     0.756710000000     0.0414765  
H296     H      0.767790000000     0.443580000000     0.798480000000     0.0421181  
H297     H      0.741560000000     0.545450000000     0.720570000000     0.0437165  
H298     H      0.720820000000     0.545090000000     0.671010000000     0.0445503  
H299     H      0.853670000000     0.471730000000     0.784570000000     0.0429745  
H300     H      0.664610000000     0.476050000000     0.653150000000     0.0387523  
H301     H      0.042500000000     0.540150000000     0.987130000000     0.0434551  
H302     H      0.012740000000     0.444940000000     0.928560000000     0.0372789  
H303     H      0.939760000000     0.493550000000     0.964330000000     0.042813   
H304     H      0.096300000000     0.506900000000     0.081510000000     0.0438645  
H305     H      0.977780000000     0.452340000000     0.887800000000     0.0421882  
H306     H      0.011230000000     0.542190000000     0.056700000000     0.0376448  
H307     H      0.090050000000     0.497420000000     0.028800000000     0.0373244  
H308     H      0.042490000000     0.574770000000     0.089210000000     0.0492554  
H309     H      0.903180000000     0.462920000000     0.935090000000     0.04119    
H310     H      0.012040000000     0.520560000000     0.945990000000     0.0463442  
H311     H      0.976600000000     0.414780000000     0.898470000000     0.0478993  
H312     H      0.017620000000     0.466870000000     0.041840000000     0.0473635  
H313     H      0.984610000000     0.426680000000     0.950820000000     0.0413054  
H314     H      0.121970000000     0.529720000000     0.061170000000     0.0479476  
H315     H      0.040120000000     0.561750000000     0.036640000000     0.0410921  
H316     H      0.086170000000     0.535570000000     0.020300000000     0.0406725  
H317     H      0.987370000000     0.447180000000     0.000650000000     0.0434287  
H318     H      0.941950000000     0.455190000000     0.971490000000     0.0441782  
H319     H      0.042710000000     0.537310000000     0.100420000000     0.0440571  
H320     H      0.955030000000     0.505610000000     0.896180000000     0.0391232  
N1       N      0.085860000000     0.058100000000     0.580390000000    -0.158757   
N2       N      0.052040000000     0.020320000000     0.543640000000    -0.111542   
N3       N      0.959090000000     0.955230000000     0.486040000000    -0.113311   
N4       N      0.926080000000     0.918370000000     0.447720000000    -0.153802   
N5       N      0.832490000000     0.796940000000     0.428380000000    -0.158532   
N6       N      0.794800000000     0.759620000000     0.461710000000    -0.11164    
N7       N      0.711620000000     0.711940000000     0.545580000000    -0.113356   
N8       N      0.671090000000     0.675700000000     0.576700000000    -0.153774   
N9       N      0.195190000000     0.165810000000     0.589800000000    -0.159131   
N10      N      0.233510000000     0.198580000000     0.552390000000    -0.111581   
N11      N      0.285460000000     0.261720000000     0.455670000000    -0.113265   
N12      N      0.323830000000     0.294160000000     0.418140000000    -0.153569   
N13      N      0.554640000000     0.568390000000     0.557850000000    -0.158621   
N14      N      0.521970000000     0.529430000000     0.521380000000    -0.111627   
N15      N      0.477750000000     0.428320000000     0.461980000000    -0.113383   
N16      N      0.444690000000     0.389550000000     0.425790000000    -0.153713   
N17      N      0.826900000000     0.909860000000     0.329350000000    -0.158682   
N18      N      0.789330000000     0.944220000000     0.292820000000    -0.111565   
N19      N      0.735410000000     0.035320000000     0.225080000000    -0.113319   
N20      N      0.702470000000     0.067990000000     0.183030000000    -0.153501   
N21      N      0.602610000000     0.182680000000     0.156350000000    -0.158966   
N22      N      0.562740000000     0.216190000000     0.191450000000    -0.111698   
N23      N      0.473280000000     0.249590000000     0.276320000000    -0.1134     
N24      N      0.435630000000     0.281540000000     0.314940000000    -0.154111   
N25      N      0.328880000000     0.907460000000     0.819970000000    -0.158653   
N26      N      0.291980000000     0.943100000000     0.783880000000    -0.111618   
N27      N      0.216200000000     0.034110000000     0.740630000000    -0.113339   
N28      N      0.180690000000     0.070800000000     0.704470000000    -0.153255   
N29      N      0.425260000000     0.795680000000     0.842070000000    -0.158777   
N30      N      0.458840000000     0.757340000000     0.805700000000    -0.11162    
N31      N      0.534010000000     0.709280000000     0.714870000000    -0.113261   
N32      N      0.565710000000     0.672620000000     0.675420000000    -0.153598   
N33      N      0.435140000000     0.931020000000     0.926900000000    -0.158992   
N34      N      0.474440000000     0.966160000000     0.961010000000    -0.111601   
N35      N      0.558270000000     0.007800000000     0.047720000000    -0.113478   
N36      N      0.597460000000     0.043510000000     0.081140000000    -0.154157   
N37      N      0.945980000000     0.817160000000     0.325440000000    -0.159418   
N38      N      0.985170000000     0.786350000000     0.287230000000    -0.111509   
N39      N      0.062650000000     0.702330000000     0.233700000000    -0.113241   
N40      N      0.093070000000     0.665190000000     0.193740000000    -0.153529   
N41      N      0.180310000000     0.659180000000     0.063010000000    -0.158908   
N42      N      0.214530000000     0.698700000000     0.028640000000    -0.11165    
N43      N      0.295190000000     0.788770000000     0.992610000000    -0.113457   
N44      N      0.332830000000     0.824910000000     0.958030000000    -0.153911   
N45      N      0.341250000000     0.400610000000     0.307780000000    -0.159339   
N46      N      0.308940000000     0.440690000000     0.272470000000    -0.111556   
N47      N      0.229590000000     0.528870000000     0.229620000000    -0.113362   
N48      N      0.191700000000     0.563490000000     0.193720000000    -0.154134   
N49      N      0.070670000000     0.175070000000     0.683860000000    -0.1593     
N50      N      0.032230000000     0.214290000000     0.713750000000    -0.111467   
N51      N      0.945210000000     0.270650000000     0.787620000000    -0.113418   
N52      N      0.913410000000     0.312100000000     0.821790000000    -0.153507   
N53      N      0.815740000000     0.338730000000     0.928350000000    -0.15926    
N54      N      0.782310000000     0.298970000000     0.963130000000    -0.11166    
N55      N      0.736440000000     0.195580000000     0.016730000000    -0.113471   
N56      N      0.705100000000     0.156170000000     0.053580000000    -0.153839   
N57      N      0.658240000000     0.544960000000     0.660480000000    -0.158871   
N58      N      0.698520000000     0.510890000000     0.694600000000    -0.111679   
N59      N      0.792270000000     0.475910000000     0.774080000000    -0.113395   
N60      N      0.829280000000     0.443870000000     0.813260000000    -0.153344   
N61      N      0.937770000000     0.440450000000     0.910530000000    -0.15893    
N62      N      0.978530000000     0.472610000000     0.946030000000    -0.111571   
N63      N      0.048580000000     0.516320000000     0.042900000000    -0.113271   
N64      N      0.083790000000     0.551220000000     0.081180000000    -0.153335   
O1       O      0.860630000000     0.361680000000     0.917410000000    -0.254642   
O2       O      0.880680000000     0.350880000000     0.825410000000    -0.249351   
O3       O      0.926290000000     0.401390000000     0.880350000000    -0.251473   
O4       O      0.834800000000     0.418070000000     0.856850000000    -0.248853   
O5       O      0.867510000000     0.410960000000     0.822160000000    -0.24969    
O6       O      0.889580000000     0.424220000000     0.901020000000    -0.252481   
O7       O      0.827560000000     0.358340000000     0.882590000000    -0.25313    
O8       O      0.909880000000     0.342220000000     0.862670000000    -0.250758   
O9       O      0.148100000000     0.570190000000     0.166650000000    -0.255069   
O10      O      0.133610000000     0.653280000000     0.163970000000    -0.253187   
O11      O      0.129600000000     0.567840000000     0.098560000000    -0.252688   
O12      O      0.179010000000     0.621640000000     0.096930000000    -0.250978   
O13      O      0.140350000000     0.649760000000     0.094480000000    -0.254033   
O14      O      0.089730000000     0.591530000000     0.111080000000    -0.247335   
O15      O      0.184280000000     0.600560000000     0.160000000000    -0.250685   
O16      O      0.094520000000     0.625670000000     0.162280000000    -0.247938   
O17      O      0.334460000000     0.874670000000     0.858400000000    -0.246949   
O18      O      0.423400000000     0.831600000000     0.877850000000    -0.248433   
O19      O      0.337380000000     0.859020000000     0.920720000000    -0.247621   
O20      O      0.390830000000     0.905240000000     0.922160000000    -0.255004   
O21      O      0.427640000000     0.893820000000     0.893290000000    -0.249843   
O22      O      0.374270000000     0.829410000000     0.927380000000    -0.254751   
O23      O      0.373220000000     0.899930000000     0.845760000000    -0.254952   
O24      O      0.384910000000     0.826490000000     0.849160000000    -0.253793   
O25      O      0.641150000000     0.070500000000     0.083970000000    -0.253873   
O26      O      0.642060000000     0.150160000000     0.154930000000    -0.252417   
O27      O      0.660800000000     0.134000000000     0.068010000000    -0.252115   
O28      O      0.695180000000     0.085620000000     0.135540000000    -0.249139   
O29      O      0.659140000000     0.090980000000     0.167200000000    -0.250772   
O30      O      0.696730000000     0.136650000000     0.100080000000    -0.250602   
O31      O      0.604530000000     0.082220000000     0.112950000000    -0.25286    
O32      O      0.609210000000     0.148050000000     0.119770000000    -0.25103    
O33      O      0.382100000000     0.387790000000     0.336790000000    -0.254721   
O34      O      0.401280000000     0.363820000000     0.415600000000    -0.25297    
O35      O      0.396520000000     0.313750000000     0.321970000000    -0.253703   
O36      O      0.365180000000     0.297850000000     0.387260000000    -0.253674   
O37      O      0.343710000000     0.337460000000     0.401380000000    -0.248144   
O38      O      0.428500000000     0.308560000000     0.357610000000    -0.251382   
O39      O      0.343750000000     0.359290000000     0.336560000000    -0.2519     
O40      O      0.432340000000     0.371200000000     0.379580000000    -0.249476   
O41      O      0.568530000000     0.644010000000     0.633360000000    -0.250742   
O42      O      0.597570000000     0.594770000000     0.568380000000    -0.250166   
O43      O      0.621620000000     0.580530000000     0.659070000000    -0.252108   
O44      O      0.661140000000     0.638550000000     0.609650000000    -0.251721   
O45      O      0.624840000000     0.653330000000     0.581710000000    -0.251442   
O46      O      0.650200000000     0.575620000000     0.620680000000    -0.251758   
O47      O      0.606660000000     0.644240000000     0.662980000000    -0.252179   
O48      O      0.566860000000     0.586060000000     0.604390000000    -0.251941   
O49      O      0.870680000000     0.884120000000     0.337620000000    -0.252922   
O50      O      0.911350000000     0.872810000000     0.432090000000    -0.251031   
O51      O      0.935500000000     0.852830000000     0.360090000000    -0.253712   
O52      O      0.838710000000     0.834910000000     0.395560000000    -0.249519   
O53      O      0.877550000000     0.820770000000     0.420330000000    -0.248464   
O54      O      0.900330000000     0.822540000000     0.349230000000    -0.255521   
O55      O      0.840570000000     0.890440000000     0.374760000000    -0.246138   
O56      O      0.903340000000     0.908730000000     0.402600000000    -0.254143   
O57      O      0.154620000000     0.162240000000     0.621720000000    -0.254368   
O58      O      0.109610000000     0.069300000000     0.624640000000    -0.250484   
O59      O      0.083860000000     0.146540000000     0.643650000000    -0.252619   
O60      O      0.176670000000     0.104040000000     0.666310000000    -0.250799   
O61      O      0.136450000000     0.081230000000     0.679590000000    -0.246561   
O62      O      0.113070000000     0.146230000000     0.681820000000    -0.255056   
O63      O      0.173150000000     0.122640000000     0.604090000000    -0.250317   
O64      O      0.103720000000     0.103590000000     0.592710000000    -0.252301   
S1       S      0.117330000000     0.008970000000     0.573560000000    -0.0300998  
S2       S      0.858550000000     0.744550000000     0.430230000000    -0.0300714  
S3       S      0.251430000000     0.145780000000     0.596510000000    -0.0294507  
S4       S      0.543020000000     0.594950000000     0.506050000000    -0.0296633  
S5       S      0.770260000000     0.890760000000     0.335680000000    -0.0282259  
S6       S      0.583660000000     0.227560000000     0.123310000000    -0.0346518  
S7       S      0.295470000000     0.873040000000     0.785020000000    -0.0300406  
S8       S      0.392190000000     0.747830000000     0.833080000000    -0.0315835  
S9       S      0.409760000000     0.983440000000     0.932950000000    -0.0320611  
S10      S      0.973750000000     0.855750000000     0.290330000000    -0.0279355  
S11      S      0.148260000000     0.672720000000     0.014380000000    -0.0334572  
S12      S      0.317380000000     0.371980000000     0.261560000000    -0.0287353  
S13      S      0.058710000000     0.219010000000     0.646720000000    -0.0271002  
S14      S      0.758650000000     0.357510000000     0.931060000000    -0.030585   
S15      S      0.669060000000     0.495700000000     0.630590000000    -0.0344849  
S16      S      0.926160000000     0.496980000000     0.902740000000    -0.0324398  


