data_structure

_audit_creation_method RASPA-1.0
_audit_creation_date 2023-5-25
_audit_author_name 'Poobodin Mano'

_cell_length_a    45.0204
_cell_length_b    41.9596
_cell_length_c    47.8587
_cell_angle_alpha 90
_cell_angle_beta  90
_cell_angle_gamma 90
_cell_volume      90406.9

_symmetry_cell_setting          triclinic
_symmetry_space_group_name_Hall 'P 1'
_symmetry_space_group_name_H-M  'P 1'
_symmetry_Int_Tables_number     1

_symmetry_equiv_pos_as_xyz 'x,y,z'

loop_
_atom_site_label
_atom_site_type_symbol
_atom_site_fract_x
_atom_site_fract_y
_atom_site_fract_z
_atom_site_charge
C1       C      0.920910000000     0.459500000000     0.890000000000     0.340412   
C2       C      0.843320000000     0.457890000000     0.827440000000     0.342015   
C3       C      0.917670000000     0.378460000000     0.820270000000     0.338928   
C4       C      0.851330000000     0.373690000000     0.894470000000     0.341062   
C5       C      0.094950000000     0.708700000000     0.149430000000     0.340424   
C6       C      0.091180000000     0.628090000000     0.081680000000     0.338444   
C7       C      0.158450000000     0.715580000000     0.071100000000     0.343411   
C8       C      0.173900000000     0.637670000000     0.141700000000     0.339746   
C9       C      0.335990000000     0.859510000000     0.870450000000     0.337789   
C10      C      0.402760000000     0.948710000000     0.865550000000     0.33893    
C11      C      0.402760000000     0.857250000000     0.802190000000     0.338041   
C12      C      0.333320000000     0.945320000000     0.800830000000     0.338742   
C13      C      0.666110000000     0.120060000000     0.114440000000     0.342041   
C14      C      0.646710000000     0.202110000000     0.049480000000     0.338898   
C15      C      0.585950000000     0.109850000000     0.051430000000     0.338822   
C16      C      0.577990000000     0.184380000000     0.121880000000     0.343442   
C17      C      0.332520000000     0.430770000000     0.309600000000     0.33873    
C18      C      0.428150000000     0.377890000000     0.308180000000     0.338803   
C19      C      0.405650000000     0.455840000000     0.374110000000     0.341517   
C20      C      0.357180000000     0.351970000000     0.374200000000     0.341825   
C21      C      0.662760000000     0.610890000000     0.632630000000     0.337819   
C22      C      0.591180000000     0.597050000000     0.564880000000     0.340143   
C23      C      0.592490000000     0.692690000000     0.624600000000     0.340867   
C24      C      0.657220000000     0.679390000000     0.550970000000     0.339795   
C25      C      0.893870000000     0.884040000000     0.307190000000     0.338987   
C26      C      0.904600000000     0.952940000000     0.387980000000     0.341545   
C27      C      0.824950000000     0.961540000000     0.319070000000     0.339899   
C28      C      0.831880000000     0.881010000000     0.388740000000     0.337778   
C29      C      0.099290000000     0.216820000000     0.631940000000     0.33966    
C30      C      0.156980000000     0.120580000000     0.619620000000     0.338115   
C31      C      0.087970000000     0.141320000000     0.554890000000     0.339017   
C32      C      0.166280000000     0.217080000000     0.563650000000     0.338609   
C33      C      0.929890000000     0.009270000000     0.442570000000    -0.0309308  
C34      C      0.063250000000     0.086560000000     0.498860000000    -0.0284134  
C35      C      0.036780000000     0.129390000000     0.539940000000    -0.011012   
C36      C      0.080950000000     0.115320000000     0.509240000000    -0.0108248  
C37      C      0.998770000000     0.078250000000     0.460850000000    -0.0533191  
C38      C      0.994770000000     0.015940000000     0.481250000000    -0.0530908  
C39      C      0.013950000000     0.069950000000     0.485340000000     0.0623352  
C40      C      0.020980000000     0.100090000000     0.528050000000    -0.0285     
C41      C      0.979410000000     0.024320000000     0.456890000000     0.0612246  
C42      C      0.972420000000     0.992660000000     0.415040000000    -0.0586379  
C43      C      0.981660000000     0.055690000000     0.446640000000    -0.0553171  
C44      C      0.955980000000     0.963240000000     0.403640000000     0.0810346  
C45      C      0.911350000000     0.980910000000     0.432740000000    -0.00852633 
C46      C      0.011990000000     0.038470000000     0.495390000000    -0.0561649  
C47      C      0.966310000000     0.932770000000     0.418530000000    -0.186329   
C48      C      0.721530000000     0.709810000000     0.511540000000    -0.031076   
C49      C      0.767660000000     0.846560000000     0.426430000000    -0.0282106  
C50      C      0.831590000000     0.836300000000     0.422140000000    -0.0108292  
C51      C      0.787860000000     0.874460000000     0.418700000000    -0.0110258  
C52      C      0.760470000000     0.799830000000     0.485390000000    -0.0535314  
C53      C      0.730160000000     0.755850000000     0.451990000000    -0.053193   
C54      C      0.764460000000     0.800370000000     0.456370000000     0.0623134  
C55      C      0.809390000000     0.810120000000     0.429810000000    -0.0284477  
C56      C      0.726100000000     0.755380000000     0.481000000000     0.0611845  
C57      C      0.680550000000     0.747160000000     0.506890000000    -0.0588199  
C58      C      0.741480000000     0.777560000000     0.497690000000    -0.0553918  
C59      C      0.657540000000     0.721720000000     0.515080000000     0.0809587  
C60      C      0.700630000000     0.682640000000     0.519670000000    -0.00844315 
C61      C      0.749170000000     0.778130000000     0.439680000000    -0.0562843  
C62      C      0.641090000000     0.709060000000     0.489260000000    -0.186149   
C63      C      0.296570000000     0.308900000000     0.405610000000    -0.0314165  
C64      C      0.236680000000     0.250010000000     0.538750000000    -0.0287131  
C65      C      0.174040000000     0.253130000000     0.523540000000    -0.0106657  
C66      C      0.212790000000     0.248440000000     0.561510000000    -0.0108223  
C67      C      0.254860000000     0.306480000000     0.487270000000    -0.0535564  
C68      C      0.284300000000     0.257030000000     0.459540000000    -0.0530628  
C69      C      0.248500000000     0.274830000000     0.494300000000     0.0624349  
C70      C      0.199200000000     0.254130000000     0.502150000000    -0.0284123  
C71      C      0.290540000000     0.288690000000     0.452400000000     0.0611616  
C72      C      0.336770000000     0.314430000000     0.439590000000    -0.0587097  
C73      C      0.275600000000     0.313470000000     0.466450000000    -0.0552595  
C74      C      0.360090000000     0.317590000000     0.416230000000     0.0805768  
C75      C      0.318320000000     0.311090000000     0.381170000000    -0.00792556 
C76      C      0.263370000000     0.250030000000     0.480220000000    -0.0562136  
C77      C      0.376780000000     0.286110000000     0.411690000000    -0.186105   
C78      C      0.466850000000     0.498760000000     0.405190000000    -0.0313906  
C79      C      0.523720000000     0.559850000000     0.538780000000    -0.0287856  
C80      C      0.586900000000     0.559300000000     0.525430000000    -0.010908   
C81      C      0.546830000000     0.562280000000     0.562170000000    -0.0107559  
C82      C      0.508250000000     0.503220000000     0.487060000000    -0.0535813  
C83      C      0.478600000000     0.551950000000     0.458540000000    -0.0532585  
C84      C      0.514070000000     0.535040000000     0.493940000000     0.0623642  
C85      C      0.562560000000     0.557270000000     0.503240000000    -0.0285151  
C86      C      0.472820000000     0.520120000000     0.451630000000     0.0611174  
C87      C      0.426650000000     0.494080000000     0.439220000000    -0.0587539  
C88      C      0.487890000000     0.495720000000     0.466060000000    -0.0552178  
C89      C      0.403300000000     0.490550000000     0.415940000000     0.0806097  
C90      C      0.445110000000     0.496110000000     0.380760000000    -0.00798856 
C91      C      0.499120000000     0.559470000000     0.479440000000    -0.0562719  
C92      C      0.386660000000     0.521970000000     0.410990000000    -0.185902   
C93      C      0.696320000000     0.058660000000     0.160570000000    -0.0311601  
C94      C      0.802620000000     0.028100000000     0.273920000000    -0.0285227  
C95      C      0.777570000000     0.968140000000     0.293770000000    -0.0110264  
C96      C      0.811040000000     0.015470000000     0.302880000000    -0.0110276  
C97      C      0.735710000000     0.050780000000     0.242860000000    -0.0535324  
C98      C      0.763590000000     0.041790000000     0.191230000000    -0.053355   
C99      C      0.761560000000     0.032310000000     0.241360000000     0.0622252  
C100     C      0.770580000000     0.982430000000     0.265140000000    -0.0283555  
C101     C      0.737590000000     0.060030000000     0.192690000000     0.0611155  
C102     C      0.723830000000     0.107980000000     0.167570000000    -0.0584177  
C103     C      0.723730000000     0.064540000000     0.218790000000    -0.0552814  
C104     C      0.714680000000     0.120750000000     0.138660000000     0.0803877  
C105     C      0.686420000000     0.068920000000     0.131380000000    -0.0081852  
C106     C      0.775540000000     0.027960000000     0.215310000000    -0.0561674  
C107     C      0.740070000000     0.117230000000     0.117480000000    -0.185675   
C108     C      0.532550000000     0.249440000000     0.150210000000    -0.0311844  
C109     C      0.476550000000     0.315050000000     0.282340000000    -0.0287933  
C110     C      0.457190000000     0.378070000000     0.264280000000    -0.0107177  
C111     C      0.471010000000     0.341310000000     0.303890000000    -0.0107054  
C112     C      0.524720000000     0.305770000000     0.226240000000    -0.0537236  
C113     C      0.485660000000     0.259030000000     0.206570000000    -0.0531554  
C114     C      0.495310000000     0.305370000000     0.235760000000     0.0623074  
C115     C      0.463130000000     0.350610000000     0.244000000000    -0.0286272  
C116     C      0.515100000000     0.259360000000     0.197120000000     0.0610847  
C117     C      0.548380000000     0.215110000000     0.188360000000    -0.058774   
C118     C      0.534610000000     0.283030000000     0.207040000000    -0.0553483  
C119     C      0.554280000000     0.187030000000     0.168430000000     0.0809959  
C120     C      0.537290000000     0.223030000000     0.128660000000    -0.00797194 
C121     C      0.475740000000     0.281830000000     0.225690000000    -0.0562493  
C122     C      0.529040000000     0.162470000000     0.169770000000    -0.186366   
C123     C      0.266560000000     0.982330000000     0.769490000000    -0.0311067  
C124     C      0.220130000000     0.076400000000     0.647560000000    -0.028658   
C125     C      0.155650000000     0.075770000000     0.653210000000    -0.0108203  
C126     C      0.200490000000     0.084750000000     0.622530000000    -0.0108162  
C127     C      0.230200000000     0.009240000000     0.688430000000    -0.0534916  
C128     C      0.254880000000     0.049490000000     0.728810000000    -0.0530605  
C129     C      0.223640000000     0.041860000000     0.687850000000     0.0622151  
C130     C      0.176830000000     0.067680000000     0.677210000000    -0.0286263  
C131     C      0.261540000000     0.016900000000     0.729320000000     0.061109   
C132     C      0.308760000000     0.991490000000     0.738970000000    -0.0583862  
C133     C      0.248970000000     0.996750000000     0.708960000000    -0.0553088  
C134     C      0.331160000000     0.984650000000     0.762500000000     0.0802289  
C135     C      0.286650000000     0.975180000000     0.794490000000    -0.00847085 
C136     C      0.236090000000     0.061970000000     0.708300000000    -0.0561385  
C137     C      0.344460000000     0.015710000000     0.773970000000    -0.185215   
C138     C      0.565270000000     0.736400000000     0.686040000000    -0.0312421  
C139     C      0.431010000000     0.815340000000     0.739980000000    -0.0285253  
C140     C      0.446270000000     0.821670000000     0.798940000000    -0.0109649  
C141     C      0.406470000000     0.821300000000     0.761490000000    -0.0109225  
C142     C      0.481800000000     0.754180000000     0.729400000000    -0.0534842  
C143     C      0.514510000000     0.797230000000     0.697100000000    -0.0531187  
C144     C      0.477200000000     0.786960000000     0.732780000000     0.0622698  
C145     C      0.469210000000     0.815840000000     0.775930000000    -0.0284336  
C146     C      0.519040000000     0.764440000000     0.693660000000     0.0610603  
C147     C      0.526410000000     0.734950000000     0.650760000000    -0.058638   
C148     C      0.502530000000     0.742910000000     0.710050000000    -0.0551935  
C149     C      0.548900000000     0.728380000000     0.627260000000     0.0808514  
C150     C      0.589490000000     0.730210000000     0.664270000000    -0.00824048 
C151     C      0.493820000000     0.808510000000     0.716500000000    -0.0561592  
C152     C      0.555300000000     0.758710000000     0.610350000000    -0.186041   
C153     C      0.469460000000     0.986180000000     0.895250000000    -0.0311286  
C154     C      0.519790000000     0.072980000000     0.019810000000    -0.0285278  
C155     C      0.584150000000     0.070340000000     0.013230000000    -0.0107533  
C156     C      0.539860000000     0.078870000000     0.045070000000    -0.0107809  
C157     C      0.507440000000     0.008270000000     0.976590000000    -0.053488   
C158     C      0.483010000000     0.051100000000     0.938140000000    -0.053259   
C159     C      0.514740000000     0.040660000000     0.978280000000     0.0621377  
C160     C      0.562260000000     0.064750000000     0.989250000000    -0.0286219  
C161     C      0.475640000000     0.018720000000     0.936510000000     0.0610775  
C162     C      0.427770000000     0.994950000000     0.926640000000    -0.0582773  
C163     C      0.488080000000     0.997290000000     0.955900000000    -0.0553472  
C164     C      0.405020000000     0.988950000000     0.903230000000     0.0799971  
C165     C      0.448810000000     0.980140000000     0.870440000000    -0.00828924 
C166     C      0.502410000000     0.062080000000     0.958820000000    -0.0562088  
C167     C      0.392080000000     0.020410000000     0.892280000000    -0.184999   
C168     C      0.932110000000     0.815330000000     0.276130000000    -0.030991   
C169     C      0.052980000000     0.776610000000     0.178600000000    -0.0286383  
C170     C      0.062780000000     0.709400000000     0.191160000000    -0.0105949  
C171     C      0.082220000000     0.760820000000     0.170050000000    -0.0106287  
C172     C      0.019110000000     0.791350000000     0.242350000000    -0.0535699  
C173     C      0.966140000000     0.799570000000     0.212680000000    -0.0531857  
C174     C      0.016350000000     0.778330000000     0.215540000000     0.0621185  
C175     C      0.034340000000     0.727370000000     0.198780000000    -0.0285321  
C176     C      0.968950000000     0.812710000000     0.239460000000     0.0610115  
C177     C      0.952080000000     0.864100000000     0.256080000000    -0.0583838  
C178     C      0.995670000000     0.808390000000     0.254300000000    -0.0553172  
C179     C      0.924190000000     0.883220000000     0.264110000000     0.0802226  
C180     C      0.903320000000     0.831990000000     0.284790000000    -0.008602   
C181     C      0.989570000000     0.782470000000     0.200750000000    -0.0561236  
C182     C      0.903900000000     0.888320000000     0.238730000000    -0.185323   
C183     C      0.180680000000     0.748250000000     0.002890000000    -0.0309742  
C184     C      0.309580000000     0.824450000000     0.936280000000    -0.0283355  
C185     C      0.293720000000     0.822770000000     0.877230000000    -0.0110467  
C186     C      0.333770000000     0.828190000000     0.914080000000    -0.0110356  
C187     C      0.261420000000     0.763980000000     0.954490000000    -0.0535539  
C188     C      0.227220000000     0.810090000000     0.981810000000    -0.0531191  
C189     C      0.264260000000     0.796050000000     0.946870000000     0.0622931  
C190     C      0.271090000000     0.819180000000     0.900890000000    -0.0283703  
C191     C      0.224500000000     0.778030000000     0.989540000000     0.0609705  
C192     C      0.220520000000     0.756840000000     0.036370000000    -0.0587753  
C193     C      0.241750000000     0.754930000000     0.975650000000    -0.0552789  
C194     C      0.199280000000     0.753340000000     0.061350000000     0.0811757  
C195     C      0.157630000000     0.744530000000     0.026160000000    -0.00830444 
C196     C      0.246910000000     0.819140000000     0.960660000000    -0.0562143  
C197     C      0.191190000000     0.785990000000     0.073650000000    -0.186302   
C198     C      0.220580000000     0.569480000000     0.161670000000    -0.0312136  
C199     C      0.282090000000     0.493430000000     0.287240000000    -0.0286558  
C200     C      0.303340000000     0.432530000000     0.265800000000    -0.0107653  
C201     C      0.288480000000     0.465920000000     0.307320000000    -0.0108036  
C202     C      0.233150000000     0.505630000000     0.232650000000    -0.0535509  
C203     C      0.270860000000     0.554670000000     0.215090000000    -0.0531058  
C204     C      0.262830000000     0.505790000000     0.241390000000     0.0622739  
C205     C      0.296430000000     0.461130000000     0.247020000000    -0.0286886  
C206     C      0.241120000000     0.554650000000     0.206530000000     0.0611343  
C207     C      0.207550000000     0.599530000000     0.203360000000    -0.0585577  
C208     C      0.222290000000     0.529800000000     0.215350000000    -0.0552674  
C209     C      0.200570000000     0.629670000000     0.186280000000     0.080655   
C210     C      0.214480000000     0.598110000000     0.142730000000    -0.00836598 
C211     C      0.281730000000     0.530480000000     0.232350000000    -0.0562012  
C212     C      0.226040000000     0.653890000000     0.188170000000    -0.185914   
C213     C      0.070070000000     0.246920000000     0.698970000000    -0.0311341  
C214     C      0.951690000000     0.350130000000     0.754170000000    -0.0284214  
C215     C      0.953860000000     0.335090000000     0.813660000000    -0.0110373  
C216     C      0.924850000000     0.357750000000     0.772590000000    -0.0109265  
C217     C      0.986650000000     0.279790000000     0.735210000000    -0.0533076  
C218     C      0.035440000000     0.317020000000     0.719660000000    -0.0530212  
C219     C      0.989800000000     0.310500000000     0.746280000000     0.0623566  
C220     C      0.979390000000     0.328580000000     0.793350000000    -0.0282385  
C221     C      0.032200000000     0.286380000000     0.708460000000     0.0611209  
C222     C      0.040980000000     0.269190000000     0.660920000000    -0.0585897  
C223     C      0.007610000000     0.267730000000     0.716470000000    -0.0551903  
C224     C      0.065630000000     0.262490000000     0.639470000000     0.0805987  
C225     C      0.096090000000     0.239280000000     0.679510000000    -0.00836036 
C226     C      0.014490000000     0.329080000000     0.738440000000    -0.0562216  
C227     C      0.082820000000     0.293030000000     0.632340000000    -0.185803   
C228     C      0.689910000000     0.231760000000     0.990290000000    -0.0313603  
C229     C      0.806500000000     0.347540000000     0.954450000000    -0.0285254  
C230     C      0.824560000000     0.322760000000     0.900120000000    -0.0107887  
C231     C      0.836510000000     0.357280000000     0.942050000000    -0.0107669  
C232     C      0.775830000000     0.275460000000     0.975200000000    -0.0535796  
C233     C      0.720060000000     0.304370000000     0.970600000000    -0.0530897  
C234     C      0.772670000000     0.303010000000     0.958960000000     0.0623254  
C235     C      0.795020000000     0.314470000000     0.914090000000    -0.028378   
C236     C      0.723200000000     0.276740000000     0.986750000000     0.0609939  
C237     C      0.700380000000     0.264380000000     0.031230000000    -0.0585531  
C238     C      0.751380000000     0.262370000000     0.989030000000    -0.0553474  
C239     C      0.670900000000     0.254820000000     0.045190000000     0.08056    
C240     C      0.660000000000     0.221120000000     0.002240000000    -0.00818595 
C241     C      0.744530000000     0.317480000000     0.956780000000    -0.0561986  
C242     C      0.647580000000     0.281300000000     0.042270000000    -0.186043   
C243     C      0.776420000000     0.481730000000     0.788270000000    -0.0311949  
C244     C      0.727390000000     0.591650000000     0.677980000000    -0.028212   
C245     C      0.669520000000     0.564810000000     0.663800000000    -0.0109261  
C246     C      0.713210000000     0.600030000000     0.649900000000    -0.0110322  
C247     C      0.752120000000     0.520500000000     0.706910000000    -0.0534576  
C248     C      0.751230000000     0.551730000000     0.758520000000    -0.0531111  
C249     C      0.734790000000     0.547950000000     0.710210000000     0.0623813  
C250     C      0.685810000000     0.558200000000     0.691240000000    -0.0283182  
C251     C      0.768750000000     0.524410000000     0.755150000000     0.0610603  
C252     C      0.818260000000     0.513610000000     0.772510000000    -0.0585482  
C253     C      0.768940000000     0.508700000000     0.729150000000    -0.0551727  
C254     C      0.836080000000     0.506580000000     0.799230000000     0.0806268  
C255     C      0.791970000000     0.473460000000     0.815740000000    -0.00811902 
C256     C      0.734290000000     0.563450000000     0.736300000000    -0.0562466  
C257     C      0.835380000000     0.535110000000     0.819310000000    -0.18569    
C258     C      0.985110000000     0.485770000000     0.932020000000    -0.0311105  
C259     C      0.026750000000     0.600990000000     0.041040000000    -0.028627   
C260     C      0.084720000000     0.576460000000     0.057650000000    -0.0110457  
C261     C      0.040370000000     0.611220000000     0.068930000000    -0.010796   
C262     C      0.004430000000     0.528330000000     0.013140000000    -0.0533896  
C263     C      0.007420000000     0.557550000000     0.960690000000    -0.0531338  
C264     C      0.021440000000     0.556010000000     0.009780000000     0.0623764  
C265     C      0.069460000000     0.567640000000     0.030150000000    -0.0283875  
C266     C      0.990290000000     0.529960000000     0.964080000000     0.0611108  
C267     C      0.942000000000     0.517490000000     0.944650000000    -0.0585649  
C268     C      0.988980000000     0.515300000000     0.990530000000    -0.0554053  
C269     C      0.925880000000     0.509190000000     0.917260000000     0.0806043  
C270     C      0.971300000000     0.476170000000     0.904050000000    -0.00833468 
C271     C      0.022960000000     0.570510000000     0.983280000000    -0.0563235  
C272     C      0.927360000000     0.537000000000     0.896460000000    -0.185671   
Cd1      Cd     0.883200000000     0.417100000000     0.858300000000     0.504633   
Cd2      Cd     0.129880000000     0.672610000000     0.110060000000     0.503895   
Cd3      Cd     0.368570000000     0.902460000000     0.834520000000     0.504608   
Cd4      Cd     0.619860000000     0.154130000000     0.084720000000     0.503774   
Cd5      Cd     0.380840000000     0.404160000000     0.341700000000     0.504507   
Cd6      Cd     0.625400000000     0.645060000000     0.593830000000     0.504279   
Cd7      Cd     0.864450000000     0.920580000000     0.350230000000     0.504622   
Cd8      Cd     0.127530000000     0.173660000000     0.593010000000     0.505168   
H1       H      0.023670000000     0.031380000000     0.514150000000     0.0423701  
H2       H      0.922250000000     0.016120000000     0.463870000000     0.0367343  
H3       H      0.996740000000     0.987780000000     0.415610000000     0.0427466  
H4       H      0.028560000000     0.150910000000     0.528800000000     0.0436805  
H5       H      0.911520000000     0.962390000000     0.449360000000     0.0392719  
H6       H      0.070480000000     0.081070000000     0.477140000000     0.03633    
H7       H      0.996640000000     0.104750000000     0.528080000000     0.036792   
H8       H      0.104740000000     0.108400000000     0.510830000000     0.0471441  
H9       H      0.962070000000     0.960820000000     0.381190000000     0.025535   
H10      H      0.993310000000     0.991870000000     0.489300000000     0.0445561  
H11      H      0.887980000000     0.988920000000     0.430110000000     0.047028   
H12      H      0.000210000000     0.102330000000     0.452810000000     0.0465858  
H13      H      0.925940000000     0.029830000000     0.428320000000     0.0404412  
H14      H      0.030660000000     0.131920000000     0.562340000000     0.0474792  
H15      H      0.068370000000     0.065540000000     0.512240000000     0.0396431  
H16      H      0.025380000000     0.079270000000     0.541870000000     0.0397053  
H17      H      0.970110000000     0.062720000000     0.427800000000     0.0426147  
H18      H      0.968870000000     0.013020000000     0.400480000000     0.045902   
H19      H      0.079280000000     0.134670000000     0.493440000000     0.0436493  
H20      H      0.990530000000     0.929190000000     0.415380000000     0.0660538  
H21      H      0.954530000000     0.911760000000     0.409780000000     0.080115   
H22      H      0.961690000000     0.934050000000     0.441300000000     0.0752045  
H23      H      0.751820000000     0.778100000000     0.417210000000     0.0424526  
H24      H      0.741180000000     0.699400000000     0.500770000000     0.0366833  
H25      H      0.669980000000     0.765060000000     0.492860000000     0.0424268  
H26      H      0.842150000000     0.845240000000     0.441630000000     0.042006   
H27      H      0.696450000000     0.667650000000     0.500920000000     0.0396488  
H28      H      0.747890000000     0.856170000000     0.437590000000     0.0362534  
H29      H      0.820800000000     0.792550000000     0.443540000000     0.0363012  
H30      H      0.776100000000     0.889720000000     0.403260000000     0.0478944  
H31      H      0.640750000000     0.733610000000     0.528610000000     0.0242171  
H32      H      0.718460000000     0.738940000000     0.438910000000     0.0445263  
H33      H      0.711990000000     0.667430000000     0.535410000000     0.0476239  
H34      H      0.772060000000     0.816840000000     0.498460000000     0.0462689  
H35      H      0.729390000000     0.722020000000     0.530840000000     0.0405312  
H36      H      0.849390000000     0.825730000000     0.408950000000     0.0469548  
H37      H      0.759860000000     0.834640000000     0.406960000000     0.0399358  
H38      H      0.802230000000     0.797580000000     0.410440000000     0.0399107  
H39      H      0.738730000000     0.777720000000     0.520150000000     0.0423488  
H40      H      0.687790000000     0.759940000000     0.526120000000     0.045364   
H41      H      0.791810000000     0.889090000000     0.437720000000     0.04304    
H42      H      0.629140000000     0.728760000000     0.478580000000     0.0653321  
H43      H      0.624480000000     0.690900000000     0.495650000000     0.078772   
H44      H      0.656790000000     0.697970000000     0.474230000000     0.0749126  
H45      H      0.258550000000     0.225360000000     0.484970000000     0.0429683  
H46      H      0.277540000000     0.293670000000     0.399130000000     0.03675    
H47      H      0.347210000000     0.303480000000     0.458370000000     0.0430534  
H48      H      0.167110000000     0.278000000000     0.528250000000     0.0407513  
H49      H      0.324120000000     0.286550000000     0.374330000000     0.0376114  
H50      H      0.256840000000     0.261480000000     0.547700000000     0.0363609  
H51      H      0.191670000000     0.268490000000     0.483910000000     0.0365437  
H52      H      0.220620000000     0.232450000000     0.578500000000     0.0473765  
H53      H      0.376750000000     0.335390000000     0.423380000000     0.0268415  
H54      H      0.295430000000     0.237730000000     0.448750000000     0.044599   
H55      H      0.307040000000     0.323050000000     0.363370000000     0.0466319  
H56      H      0.243350000000     0.325770000000     0.497700000000     0.04616    
H57      H      0.287930000000     0.333170000000     0.410390000000     0.0421706  
H58      H      0.154710000000     0.240650000000     0.514100000000     0.0479359  
H59      H      0.242590000000     0.225310000000     0.532320000000     0.0408912  
H60      H      0.203990000000     0.229470000000     0.494780000000     0.0416471  
H61      H      0.279700000000     0.338140000000     0.461140000000     0.0429454  
H62      H      0.329300000000     0.338810000000     0.445530000000     0.046983   
H63      H      0.209910000000     0.272680000000     0.570500000000     0.0405661  
H64      H      0.389210000000     0.279520000000     0.430890000000     0.0656164  
H65      H      0.393000000000     0.288850000000     0.394370000000     0.0767311  
H66      H      0.361280000000     0.266420000000     0.406440000000     0.0741768  
H67      H      0.503470000000     0.584260000000     0.484130000000     0.0424168  
H68      H      0.485940000000     0.513770000000     0.398470000000     0.0365212  
H69      H      0.416250000000     0.505420000000     0.457850000000     0.0430086  
H70      H      0.594350000000     0.534710000000     0.530530000000     0.0416322  
H71      H      0.439490000000     0.520510000000     0.373430000000     0.0375826  
H72      H      0.503730000000     0.547520000000     0.547160000000     0.0365592  
H73      H      0.571180000000     0.543150000000     0.485300000000     0.0362302  
H74      H      0.537840000000     0.577620000000     0.579120000000     0.0477457  
H75      H      0.386620000000     0.472900000000     0.423370000000     0.0268292  
H76      H      0.467330000000     0.570960000000     0.447500000000     0.0443207  
H77      H      0.456360000000     0.483610000000     0.363230000000     0.046535   
H78      H      0.519770000000     0.484220000000     0.497870000000     0.0463922  
H79      H      0.475400000000     0.474570000000     0.410400000000     0.0419215  
H80      H      0.606190000000     0.572380000000     0.516570000000     0.0467017  
H81      H      0.517140000000     0.584320000000     0.532280000000     0.0406525  
H82      H      0.557240000000     0.581710000000     0.495660000000     0.0403851  
H83      H      0.484070000000     0.470930000000     0.460970000000     0.0429015  
H84      H      0.434100000000     0.469820000000     0.445530000000     0.0469327  
H85      H      0.550500000000     0.538070000000     0.570970000000     0.0418291  
H86      H      0.374350000000     0.529010000000     0.430140000000     0.0654908  
H87      H      0.370340000000     0.518930000000     0.393790000000     0.0767321  
H88      H      0.402200000000     0.541490000000     0.405330000000     0.0740047  
H89      H      0.795440000000     0.013630000000     0.213550000000     0.0419349  
H90      H      0.697940000000     0.032190000000     0.160920000000     0.0364622  
H91      H      0.745780000000     0.118180000000     0.173530000000     0.0428371  
H92      H      0.759430000000     0.974700000000     0.308460000000     0.0426426  
H93      H      0.701430000000     0.057800000000     0.115730000000     0.0383024  
H94      H      0.803510000000     0.054610000000     0.274440000000     0.0364544  
H95      H      0.747730000000     0.975010000000     0.259060000000     0.0362338  
H96      H      0.834560000000     0.021840000000     0.307230000000     0.0472856  
H97      H      0.710320000000     0.146720000000     0.141080000000     0.0262454  
H98      H      0.774420000000     0.038020000000     0.171300000000     0.0443254  
H99      H      0.663700000000     0.059510000000     0.127560000000     0.0466406  
H100     H      0.724650000000     0.054190000000     0.262730000000     0.0463188  
H101     H      0.679150000000     0.066020000000     0.176040000000     0.0411376  
H102     H      0.777790000000     0.941730000000     0.291890000000     0.0471427  
H103     H      0.819220000000     0.019540000000     0.258390000000     0.0397215  
H104     H      0.786430000000     0.972690000000     0.249440000000     0.0395449  
H105     H      0.703530000000     0.078380000000     0.220490000000     0.0425035  
H106     H      0.707310000000     0.116350000000     0.183260000000     0.0462092  
H107     H      0.796960000000     0.027590000000     0.318740000000     0.0426728  
H108     H      0.759720000000     0.131170000000     0.124380000000     0.0654797  
H109     H      0.732920000000     0.126490000000     0.096800000000     0.0769602  
H110     H      0.746700000000     0.091880000000     0.115060000000     0.0743783  
H111     H      0.452870000000     0.281070000000     0.232620000000     0.0427827  
H112     H      0.514410000000     0.265260000000     0.142610000000     0.0361816  
H113     H      0.542270000000     0.205790000000     0.209380000000     0.0427808  
H114     H      0.477410000000     0.393240000000     0.265380000000     0.0418058  
H115     H      0.515520000000     0.211660000000     0.124090000000     0.0388814  
H116     H      0.494220000000     0.299000000000     0.290490000000     0.0361153  
H117     H      0.470880000000     0.360810000000     0.223800000000     0.0365213  
H118     H      0.462350000000     0.330290000000     0.323390000000     0.046507   
H119     H      0.574810000000     0.174930000000     0.175870000000     0.0256344  
H120     H      0.470400000000     0.241020000000     0.199050000000     0.0445741  
H121     H      0.545400000000     0.234010000000     0.108940000000     0.0456425  
H122     H      0.539980000000     0.323790000000     0.233740000000     0.0460923  
H123     H      0.553220000000     0.263910000000     0.151930000000     0.0402365  
H124     H      0.438780000000     0.392920000000     0.255900000000     0.0480847  
H125     H      0.455840000000     0.300850000000     0.279730000000     0.0405409  
H126     H      0.442000000000     0.337530000000     0.240140000000     0.0412607  
H127     H      0.557430000000     0.283920000000     0.199970000000     0.0422861  
H128     H      0.569310000000     0.228990000000     0.190780000000     0.0458836  
H129     H      0.492590000000     0.352840000000     0.308930000000     0.0413431  
H130     H      0.527110000000     0.152640000000     0.191250000000     0.0658718  
H131     H      0.533790000000     0.142430000000     0.155290000000     0.0794076  
H132     H      0.507470000000     0.173370000000     0.163820000000     0.0749818  
H133     H      0.231400000000     0.087270000000     0.708340000000     0.0428959  
H134     H      0.245400000000     0.992630000000     0.777450000000     0.0365303  
H135     H      0.318830000000     0.008310000000     0.723640000000     0.0427304  
H136     H      0.148220000000     0.053150000000     0.643310000000     0.0414137  
H137     H      0.287910000000     0.996800000000     0.807880000000     0.0386351  
H138     H      0.241000000000     0.065430000000     0.639630000000     0.03644    
H139     H      0.165650000000     0.050230000000     0.691220000000     0.0366625  
H140     H      0.211960000000     0.103090000000     0.609700000000     0.0480101  
H141     H      0.349720000000     0.970750000000     0.753130000000     0.0262351  
H142     H      0.264400000000     0.065260000000     0.744330000000     0.0444702  
H143     H      0.276200000000     0.955980000000     0.807140000000     0.0469398  
H144     H      0.220790000000     0.993490000000     0.672840000000     0.0461384  
H145     H      0.261290000000     0.959650000000     0.758470000000     0.0405685  
H146     H      0.135720000000     0.087870000000     0.661910000000     0.0478528  
H147     H      0.226000000000     0.098710000000     0.658890000000     0.0413173  
H148     H      0.181420000000     0.089700000000     0.689450000000     0.0413048  
H149     H      0.253750000000     0.971470000000     0.708900000000     0.042484   
H150     H      0.304030000000     0.968860000000     0.727650000000     0.0459393  
H151     H      0.197800000000     0.063060000000     0.609420000000     0.0414532  
H152     H      0.356170000000     0.028860000000     0.757100000000     0.0654156  
H153     H      0.360810000000     0.010260000000     0.790680000000     0.0770602  
H154     H      0.326870000000     0.031300000000     0.782820000000     0.0738316  
H155     H      0.490760000000     0.833960000000     0.718770000000     0.0426082  
H156     H      0.575060000000     0.750800000000     0.703280000000     0.036535   
H157     H      0.506910000000     0.747940000000     0.642060000000     0.0428691  
H158     H      0.440890000000     0.798490000000     0.809010000000     0.0422284  
H159     H      0.599930000000     0.753320000000     0.658570000000     0.038748   
H160     H      0.421450000000     0.801340000000     0.722390000000     0.036426   
H161     H      0.488090000000     0.802230000000     0.785050000000     0.0366151  
H162     H      0.389200000000     0.836740000000     0.751860000000     0.0475339  
H163     H      0.538360000000     0.711010000000     0.612740000000     0.0265115  
H164     H      0.527050000000     0.814060000000     0.684650000000     0.044541   
H165     H      0.606990000000     0.715090000000     0.673930000000     0.0462604  
H166     H      0.469220000000     0.737350000000     0.741820000000     0.0464458  
H167     H      0.557760000000     0.713220000000     0.694900000000     0.0407541  
H168     H      0.456360000000     0.837320000000     0.815110000000     0.048051   
H169     H      0.438820000000     0.838640000000     0.731590000000     0.0403592  
H170     H      0.477820000000     0.839170000000     0.768340000000     0.0406696  
H171     H      0.505600000000     0.717450000000     0.707830000000     0.0426357  
H172     H      0.518200000000     0.711710000000     0.658960000000     0.0463357  
H173     H      0.395880000000     0.798110000000     0.766740000000     0.0421848  
H174     H      0.534570000000     0.767670000000     0.600510000000     0.0656775  
H175     H      0.571500000000     0.753380000000     0.593480000000     0.0789912  
H176     H      0.564650000000     0.777750000000     0.623880000000     0.0746258  
H177     H      0.507670000000     0.087230000000     0.959690000000     0.0423685  
H178     H      0.490560000000     0.996540000000     0.887200000000     0.0365041  
H179     H      0.418080000000     0.011560000000     0.942360000000     0.0426501  
H180     H      0.591520000000     0.046820000000     0.021380000000     0.042601   
H181     H      0.447160000000     0.002380000000     0.857900000000     0.0378541  
H182     H      0.498570000000     0.062410000000     0.027360000000     0.0359879  
H183     H      0.572650000000     0.048030000000     0.974060000000     0.036504   
H184     H      0.529300000000     0.097160000000     0.058620000000     0.0462635  
H185     H      0.386340000000     0.975250000000     0.912600000000     0.0264716  
H186     H      0.473610000000     0.067840000000     0.923370000000     0.0443303  
H187     H      0.459010000000     0.961610000000     0.856880000000     0.0470629  
H188     H      0.516750000000     0.991540000000     0.991420000000     0.0462817  
H189     H      0.474710000000     0.963030000000     0.905520000000     0.0411024  
H190     H      0.604040000000     0.082840000000     0.004860000000     0.047822   
H191     H      0.514660000000     0.096190000000     0.009610000000     0.0400707  
H192     H      0.558030000000     0.087760000000     0.978350000000     0.0402533  
H193     H      0.482760000000     0.972150000000     0.955100000000     0.042629   
H194     H      0.432300000000     0.971970000000     0.937500000000     0.046262   
H195     H      0.541440000000     0.056430000000     0.057350000000     0.0419832  
H196     H      0.380490000000     0.033320000000     0.909360000000     0.0651458  
H197     H      0.375690000000     0.015500000000     0.875470000000     0.0757047  
H198     H      0.409820000000     0.036010000000     0.883710000000     0.0734524  
H199     H      0.986850000000     0.772600000000     0.180010000000     0.0424056  
H200     H      0.927020000000     0.789820000000     0.271880000000     0.0364893  
H201     H      0.962350000000     0.874780000000     0.237090000000     0.0427687  
H202     H      0.077250000000     0.708200000000     0.209960000000     0.0426902  
H203     H      0.885990000000     0.826850000000     0.268870000000     0.0387741  
H204     H      0.057340000000     0.802300000000     0.182720000000     0.0359053  
H205     H      0.024780000000     0.716380000000     0.217950000000     0.036448   
H206     H      0.089540000000     0.771120000000     0.149780000000     0.0459078  
H207     H      0.931820000000     0.907170000000     0.271070000000     0.0266076  
H208     H      0.945720000000     0.802700000000     0.201040000000     0.0444726  
H209     H      0.895670000000     0.821610000000     0.304920000000     0.0470697  
H210     H      0.039560000000     0.788310000000     0.253970000000     0.0460677  
H211     H      0.948210000000     0.816420000000     0.293780000000     0.040621   
H212     H      0.056810000000     0.684570000000     0.185290000000     0.0475585  
H213     H      0.036920000000     0.774870000000     0.160960000000     0.0399341  
H214     H      0.017910000000     0.724690000000     0.181540000000     0.040233   
H215     H      0.998420000000     0.818250000000     0.275030000000     0.0422962  
H216     H      0.968560000000     0.866100000000     0.273350000000     0.0460907  
H217     H      0.099400000000     0.766740000000     0.185920000000     0.0417823  
H218     H      0.915800000000     0.901950000000     0.222260000000     0.0652803  
H219     H      0.883980000000     0.902210000000     0.245000000000     0.0771635  
H220     H      0.896500000000     0.865200000000     0.229810000000     0.0743391  
H221     H      0.248750000000     0.844100000000     0.955230000000     0.0426263  
H222     H      0.169380000000     0.758210000000     0.984130000000     0.0363814  
H223     H      0.239280000000     0.772810000000     0.042250000000     0.0427124  
H224     H      0.299700000000     0.798630000000     0.869470000000     0.0421316  
H225     H      0.145610000000     0.767490000000     0.028670000000     0.0391236  
H226     H      0.319650000000     0.813090000000     0.955060000000     0.0362569  
H227     H      0.252540000000     0.803890000000     0.893350000000     0.0366213  
H228     H      0.350850000000     0.845070000000     0.922010000000     0.0476348  
H229     H      0.211470000000     0.739970000000     0.077850000000     0.0252296  
H230     H      0.214190000000     0.828120000000     0.992380000000     0.0445004  
H231     H      0.141090000000     0.726320000000     0.019600000000     0.046189   
H232     H      0.274670000000     0.745980000000     0.944110000000     0.046348   
H233     H      0.189630000000     0.724320000000     0.997350000000     0.0402887  
H234     H      0.283120000000     0.835940000000     0.859700000000     0.0480595  
H235     H      0.301280000000     0.848470000000     0.942380000000     0.0405315  
H236     H      0.261870000000     0.843070000000     0.906160000000     0.0406268  
H237     H      0.240180000000     0.730020000000     0.981300000000     0.0424876  
H238     H      0.230140000000     0.733030000000     0.031440000000     0.0460238  
H239     H      0.344710000000     0.804710000000     0.910930000000     0.0420202  
H240     H      0.211490000000     0.798380000000     0.081160000000     0.0656274  
H241     H      0.175960000000     0.782870000000     0.091700000000     0.0793181  
H242     H      0.180060000000     0.801250000000     0.057830000000     0.0749675  
H243     H      0.304760000000     0.531170000000     0.238800000000     0.0427184  
H244     H      0.238090000000     0.554570000000     0.151730000000     0.0366849  
H245     H      0.215070000000     0.606510000000     0.224680000000     0.0427714  
H246     H      0.283620000000     0.416570000000     0.266100000000     0.041898   
H247     H      0.235960000000     0.609850000000     0.137700000000     0.0390047  
H248     H      0.263970000000     0.508260000000     0.296280000000     0.0360452  
H249     H      0.288900000000     0.452090000000     0.226340000000     0.0366987  
H250     H      0.296820000000     0.475850000000     0.327380000000     0.0465378  
H251     H      0.180680000000     0.640950000000     0.195940000000     0.0261731  
H252     H      0.285580000000     0.573650000000     0.208490000000     0.0445431  
H253     H      0.204860000000     0.589310000000     0.122770000000     0.0473048  
H254     H      0.218360000000     0.486800000000     0.239440000000     0.0462572  
H255     H      0.200010000000     0.554880000000     0.163440000000     0.0407687  
H256     H      0.322190000000     0.419000000000     0.256620000000     0.0480303  
H257     H      0.302350000000     0.508510000000     0.285360000000     0.0404728  
H258     H      0.317130000000     0.475200000000     0.243830000000     0.0411438  
H259     H      0.199210000000     0.529230000000     0.209040000000     0.0425668  
H260     H      0.186740000000     0.585450000000     0.205820000000     0.0461667  
H261     H      0.267280000000     0.453280000000     0.311710000000     0.0413754  
H262     H      0.229530000000     0.661280000000     0.210230000000     0.0656445  
H263     H      0.220470000000     0.675470000000     0.175790000000     0.0785989  
H264     H      0.247070000000     0.643660000000     0.180000000000     0.0747911  
H265     H      0.017460000000     0.352860000000     0.746720000000     0.0424092  
H266     H      0.079070000000     0.251610000000     0.720240000000     0.0366172  
H267     H      0.027740000000     0.290200000000     0.654030000000     0.0431259  
H268     H      0.941480000000     0.312510000000     0.817150000000     0.0434228  
H269     H      0.113140000000     0.258280000000     0.681720000000     0.039083   
H270     H      0.943620000000     0.345190000000     0.732620000000     0.0364545  
H271     H      0.992040000000     0.307540000000     0.801060000000     0.0366018  
H272     H      0.914830000000     0.380520000000     0.765320000000     0.0470223  
H273     H      0.054560000000     0.254350000000     0.619940000000     0.026972   
H274     H      0.054220000000     0.331640000000     0.713660000000     0.0445422  
H275     H      0.106390000000     0.216510000000     0.686410000000     0.0467948  
H276     H      0.967780000000     0.265240000000     0.741080000000     0.0466865  
H277     H      0.055150000000     0.225790000000     0.700210000000     0.0407727  
H278     H      0.963380000000     0.342590000000     0.834070000000     0.0478232  
H279     H      0.966560000000     0.371330000000     0.753340000000     0.0396486  
H280     H      0.994660000000     0.349470000000     0.793110000000     0.0398446  
H281     H      0.004560000000     0.243990000000     0.708120000000     0.042767   
H282     H      0.025670000000     0.248350000000     0.661530000000     0.0465088  
H283     H      0.907940000000     0.338700000000     0.769730000000     0.0433163  
H284     H      0.067610000000     0.311130000000     0.623260000000     0.066128   
H285     H      0.100330000000     0.287710000000     0.616670000000     0.0783353  
H286     H      0.093530000000     0.303230000000     0.651240000000     0.0748369  
H287     H      0.741490000000     0.338770000000     0.944340000000     0.042636   
H288     H      0.688220000000     0.231930000000     0.967090000000     0.0365865  
H289     H      0.706940000000     0.288630000000     0.038420000000     0.0428522  
H290     H      0.840620000000     0.303210000000     0.904330000000     0.0421706  
H291     H      0.642210000000     0.236140000000     0.992980000000     0.0382659  
H292     H      0.808430000000     0.347750000000     0.977640000000     0.0362766  
H293     H      0.788350000000     0.290130000000     0.907290000000     0.0366355  
H294     H      0.841220000000     0.382390000000     0.948020000000     0.0470835  
H295     H      0.675470000000     0.251940000000     0.067910000000     0.0264883  
H296     H      0.698540000000     0.315700000000     0.968700000000     0.0445235  
H297     H      0.655810000000     0.196110000000     0.995650000000     0.0466864  
H298     H      0.797330000000     0.264070000000     0.977040000000     0.046167   
H299     H      0.707240000000     0.214130000000     0.996370000000     0.0405931  
H300     H      0.821080000000     0.323960000000     0.877140000000     0.0478453  
H301     H      0.789400000000     0.365390000000     0.948280000000     0.0403975  
H302     H      0.777700000000     0.331590000000     0.906940000000     0.040786   
H303     H      0.754440000000     0.241030000000     0.001400000000     0.0422523  
H304     H      0.718000000000     0.247510000000     0.038180000000     0.0459351  
H305     H      0.854100000000     0.342050000000     0.951420000000     0.0420884  
H306     H      0.655430000000     0.303390000000     0.052720000000     0.065694   
H307     H      0.626520000000     0.273790000000     0.052400000000     0.0780738  
H308     H      0.643030000000     0.286710000000     0.019960000000     0.0746449  
H309     H      0.720970000000     0.584630000000     0.739420000000     0.0422569  
H310     H      0.752010000000     0.481790000000     0.792000000000     0.0365747  
H311     H      0.824990000000     0.537240000000     0.763980000000     0.0427027  
H312     H      0.672780000000     0.544130000000     0.649580000000     0.0435483  
H313     H      0.783340000000     0.489410000000     0.832420000000     0.0390307  
H314     H      0.751970000000     0.592580000000     0.675540000000     0.0363855  
H315     H      0.679280000000     0.534090000000     0.698750000000     0.0365775  
H316     H      0.718190000000     0.625400000000     0.645070000000     0.0477777  
H317     H      0.859630000000     0.503060000000     0.792840000000     0.0257098  
H318     H      0.750800000000     0.564000000000     0.778430000000     0.0444096  
H319     H      0.786010000000     0.448610000000     0.821560000000     0.0465934  
H320     H      0.752620000000     0.508290000000     0.686980000000     0.0467345  
H321     H      0.781470000000     0.462960000000     0.772510000000     0.0408458  
H322     H      0.645320000000     0.566710000000     0.668210000000     0.0470273  
H323     H      0.720820000000     0.609820000000     0.693780000000     0.0394212  
H324     H      0.678770000000     0.575960000000     0.707220000000     0.0395656  
H325     H      0.782170000000     0.487460000000     0.726020000000     0.0426015  
H326     H      0.823980000000     0.495330000000     0.756510000000     0.0460849  
H327     H      0.723730000000     0.585240000000     0.633350000000     0.0438569  
H328     H      0.845270000000     0.556430000000     0.809170000000     0.0646993  
H329     H      0.848570000000     0.529620000000     0.838330000000     0.0771636  
H330     H      0.812270000000     0.540810000000     0.825700000000     0.0745878  
H331     H      0.036050000000     0.591830000000     0.980080000000     0.0426056  
H332     H      0.009700000000     0.486110000000     0.929550000000     0.0366126  
H333     H      0.934460000000     0.541290000000     0.952150000000     0.0426579  
H334     H      0.080380000000     0.557240000000     0.073120000000     0.0421688  
H335     H      0.980740000000     0.491550000000     0.887350000000     0.0391435  
H336     H      0.002130000000     0.601260000000     0.043190000000     0.0363597  
H337     H      0.076560000000     0.543160000000     0.024160000000     0.0365979  
H338     H      0.034030000000     0.636380000000     0.073140000000     0.0473854  
H339     H      0.902040000000     0.505500000000     0.922530000000     0.0257355  
H340     H      0.008670000000     0.569030000000     0.940460000000     0.044522   
H341     H      0.977860000000     0.451180000000     0.899340000000     0.0469103  
H342     H      0.003150000000     0.516860000000     0.033380000000     0.0463151  
H343     H      0.979390000000     0.467550000000     0.948070000000     0.040713   
H344     H      0.109100000000     0.577520000000     0.054080000000     0.0479199  
H345     H      0.033070000000     0.618560000000     0.024650000000     0.0405353  
H346     H      0.076850000000     0.584400000000     0.013490000000     0.0406957  
H347     H      0.975990000000     0.493910000000     0.993700000000     0.042545   
H348     H      0.935630000000     0.499700000000     0.960850000000     0.0460286  
H349     H      0.030700000000     0.596250000000     0.085800000000     0.0420456  
H350     H      0.916660000000     0.558520000000     0.905480000000     0.0646767  
H351     H      0.915350000000     0.530630000000     0.876970000000     0.0771252  
H352     H      0.950740000000     0.542830000000     0.891080000000     0.0745804  
N1       N      0.923430000000     0.966870000000     0.406790000000    -0.166685   
N2       N      0.961490000000     0.000470000000     0.443180000000    -0.1102     
N3       N      0.031350000000     0.093980000000     0.499390000000    -0.113423   
N4       N      0.069250000000     0.127260000000     0.536080000000    -0.153995   
N5       N      0.671940000000     0.694990000000     0.530040000000    -0.166344   
N6       N      0.706090000000     0.732180000000     0.492870000000    -0.110265   
N7       N      0.783850000000     0.824160000000     0.444480000000    -0.113574   
N8       N      0.816790000000     0.863240000000     0.408010000000    -0.153792   
N9       N      0.345620000000     0.327770000000     0.389950000000    -0.166765   
N10      N      0.311420000000     0.294950000000     0.430160000000    -0.110307   
N11      N      0.225710000000     0.268670000000     0.514800000000    -0.113807   
N12      N      0.184200000000     0.237930000000     0.549620000000    -0.154587   
N13      N      0.417670000000     0.479850000000     0.389770000000    -0.166796   
N14      N      0.452010000000     0.513330000000     0.429460000000    -0.11035    
N15      N      0.536060000000     0.541770000000     0.515070000000    -0.113753   
N16      N      0.575220000000     0.574310000000     0.551020000000    -0.15475    
N17      N      0.687940000000     0.103910000000     0.128390000000    -0.1669     
N18      N      0.725340000000     0.072930000000     0.167210000000    -0.11034    
N19      N      0.772480000000     0.017400000000     0.266530000000    -0.113667   
N20      N      0.805840000000     0.980820000000     0.304690000000    -0.154453   
N21      N      0.557890000000     0.198500000000     0.139370000000    -0.166886   
N22      N      0.524440000000     0.235430000000     0.177320000000    -0.110277   
N23      N      0.485960000000     0.329250000000     0.255610000000    -0.113753   
N24      N      0.450730000000     0.365590000000     0.292420000000    -0.154191   
N25      N      0.317010000000     0.966560000000     0.785490000000    -0.166191   
N26      N      0.281310000000     0.005050000000     0.750670000000    -0.110279   
N27      N      0.204490000000     0.053910000000     0.666060000000    -0.113674   
N28      N      0.170910000000     0.095300000000     0.631990000000    -0.154029   
N29      N      0.576940000000     0.715530000000     0.638830000000    -0.166444   
N30      N      0.540370000000     0.753730000000     0.673170000000    -0.110229   
N31      N      0.455580000000     0.797600000000     0.753020000000    -0.113572   
N32      N      0.418700000000     0.835320000000     0.787320000000    -0.154069   
N33      N      0.418780000000     0.971020000000     0.879950000000    -0.166318   
N34      N      0.455330000000     0.008370000000     0.914990000000    -0.110342   
N35      N      0.534510000000     0.051080000000     0.000200000000    -0.1135     
N36      N      0.570000000000     0.088260000000     0.036180000000    -0.153969   
N37      N      0.907560000000     0.866840000000     0.286600000000    -0.166138   
N38      N      0.944360000000     0.830520000000     0.250930000000    -0.110318   
N39      N      0.041210000000     0.761140000000     0.203870000000    -0.113577   
N40      N      0.079130000000     0.725830000000     0.168640000000    -0.154155   
N41      N      0.171930000000     0.736240000000     0.052980000000    -0.167012   
N42      N      0.204570000000     0.769780000000     0.012050000000    -0.110171   
N43      N      0.285350000000     0.804470000000     0.925370000000    -0.113646   
N44      N      0.320930000000     0.838690000000     0.887250000000    -0.153959   
N45      N      0.194910000000     0.621460000000     0.156670000000    -0.166311   
N46      N      0.230590000000     0.580520000000     0.189290000000    -0.110261   
N47      N      0.273010000000     0.480820000000     0.259810000000    -0.113714   
N48      N      0.309500000000     0.443260000000     0.294550000000    -0.15428    
N49      N      0.086410000000     0.237940000000     0.650040000000    -0.166204   
N50      N      0.053980000000     0.275070000000     0.688660000000    -0.110194   
N51      N      0.967440000000     0.322180000000     0.765320000000    -0.113417   
N52      N      0.933080000000     0.359120000000     0.802430000000    -0.153853   
N53      N      0.659460000000     0.224870000000     0.032910000000    -0.166407   
N54      N      0.697370000000     0.263830000000     0.000590000000    -0.110212   
N55      N      0.798400000000     0.315450000000     0.944650000000    -0.113642   
N56      N      0.836750000000     0.352720000000     0.911490000000    -0.154493   
N57      N      0.824430000000     0.477880000000     0.813510000000    -0.166498   
N58      N      0.786190000000     0.513270000000     0.778510000000    -0.110223   
N59      N      0.718050000000     0.559550000000     0.686580000000    -0.113375   
N60      N      0.680940000000     0.593720000000     0.649860000000    -0.153669   
N61      N      0.938710000000     0.480200000000     0.904410000000    -0.166289   
N62      N      0.974360000000     0.517500000000     0.940280000000    -0.110231   
N63      N      0.037010000000     0.568740000000     0.033680000000    -0.113633   
N64      N      0.072860000000     0.606700000000     0.068740000000    -0.154041   
O1       O      0.833930000000     0.434790000000     0.842000000000    -0.255091   
O2       O      0.853120000000     0.369430000000     0.868370000000    -0.254405   
O3       O      0.893030000000     0.463080000000     0.888840000000    -0.25616    
O4       O      0.897760000000     0.397410000000     0.811690000000    -0.253553   
O5       O      0.921910000000     0.377840000000     0.846420000000    -0.25047    
O6       O      0.931390000000     0.436030000000     0.876590000000    -0.252646   
O7       O      0.871210000000     0.461820000000     0.826980000000    -0.255993   
O8       O      0.864200000000     0.398250000000     0.903920000000    -0.254963   
O9       O      0.081390000000     0.653450000000     0.092650000000    -0.252705   
O10      O      0.169900000000     0.632850000000     0.115870000000    -0.250637   
O11      O      0.095040000000     0.678500000000     0.149390000000    -0.249386   
O12      O      0.133980000000     0.702200000000     0.065460000000    -0.257205   
O13      O      0.169560000000     0.709030000000     0.094680000000    -0.259089   
O14      O      0.110850000000     0.722120000000     0.131020000000    -0.255852   
O15      O      0.118860000000     0.623480000000     0.083740000000    -0.251089   
O16      O      0.157530000000     0.658650000000     0.152800000000    -0.255945   
O17      O      0.376410000000     0.941490000000     0.872310000000    -0.255881   
O18      O      0.322820000000     0.931600000000     0.822220000000    -0.252611   
O19      O      0.360350000000     0.871990000000     0.877870000000    -0.25284    
O20      O      0.411700000000     0.867850000000     0.825470000000    -0.25177    
O21      O      0.377970000000     0.867760000000     0.793730000000    -0.253154   
O22      O      0.326630000000     0.867080000000     0.846410000000    -0.251358   
O23      O      0.413260000000     0.934390000000     0.844470000000    -0.252461   
O24      O      0.360050000000     0.938850000000     0.794860000000    -0.256415   
O25      O      0.635860000000     0.176710000000     0.039500000000    -0.252522   
O26      O      0.595150000000     0.162380000000     0.130090000000    -0.257711   
O27      O      0.667440000000     0.149790000000     0.110320000000    -0.257094   
O28      O      0.612810000000     0.116260000000     0.045860000000    -0.247837   
O29      O      0.574850000000     0.124170000000     0.072250000000    -0.25526    
O30      O      0.643450000000     0.106130000000     0.104730000000    -0.256876   
O31      O      0.644940000000     0.205280000000     0.075720000000    -0.253866   
O32      O      0.580260000000     0.192290000000     0.096440000000    -0.255574   
O33      O      0.411660000000     0.400140000000     0.299290000000    -0.248585   
O34      O      0.380120000000     0.367170000000     0.381670000000    -0.253375   
O35      O      0.349640000000     0.409730000000     0.299590000000    -0.24899    
O36      O      0.417160000000     0.446830000000     0.351320000000    -0.257557   
O37      O      0.382460000000     0.441150000000     0.381670000000    -0.253363   
O38      O      0.337840000000     0.439440000000     0.334440000000    -0.255256   
O39      O      0.422650000000     0.367820000000     0.332570000000    -0.255285   
O40      O      0.345430000000     0.360700000000     0.351430000000    -0.257572   
O41      O      0.582160000000     0.609390000000     0.587470000000    -0.251207   
O42      O      0.631690000000     0.687980000000     0.559120000000    -0.258578   
O43      O      0.672270000000     0.634320000000     0.618550000000    -0.248658   
O44      O      0.582710000000     0.680390000000     0.602280000000    -0.25328    
O45      O      0.617640000000     0.682900000000     0.632770000000    -0.257117   
O46      O      0.635690000000     0.603670000000     0.629140000000    -0.254266   
O47      O      0.615940000000     0.606900000000     0.555890000000    -0.257991   
O48      O      0.668070000000     0.655130000000     0.562910000000    -0.248598   
O49      O      0.914030000000     0.937420000000     0.367110000000    -0.256979   
O50      O      0.820710000000     0.905820000000     0.377940000000    -0.250291   
O51      O      0.896140000000     0.914060000000     0.308660000000    -0.255676   
O52      O      0.848190000000     0.972240000000     0.330660000000    -0.254052   
O53      O      0.820200000000     0.931990000000     0.321890000000    -0.254145   
O54      O      0.877930000000     0.870910000000     0.325700000000    -0.251955   
O55      O      0.876710000000     0.953990000000     0.390900000000    -0.256284   
O56      O      0.858120000000     0.874140000000     0.381260000000    -0.251275   
O57      O      0.169440000000     0.137030000000     0.600790000000    -0.251278   
O58      O      0.141260000000     0.208750000000     0.554120000000    -0.253537   
O59      O      0.119120000000     0.197340000000     0.639700000000    -0.253662   
O60      O      0.115680000000     0.142940000000     0.550700000000    -0.25345    
O61      O      0.078550000000     0.154240000000     0.577100000000    -0.251913   
O62      O      0.092470000000     0.216040000000     0.606310000000    -0.254878   
O63      O      0.130800000000     0.128750000000     0.626160000000    -0.252708   
O64      O      0.173580000000     0.205190000000     0.586980000000    -0.252569   


