data_structure

_audit_creation_method RASPA-1.0
_audit_creation_date 2023-5-23
_audit_author_name 'Poobodin Mano'

_cell_length_a    42.9878
_cell_length_b    44.0916
_cell_length_c    46.8352
_cell_angle_alpha 90.0186
_cell_angle_beta  90.0665
_cell_angle_gamma 119.998
_cell_volume      76879.8

_symmetry_cell_setting          triclinic
_symmetry_space_group_name_Hall 'P 1'
_symmetry_space_group_name_H-M  'P 1'
_symmetry_Int_Tables_number     1

_symmetry_equiv_pos_as_xyz 'x,y,z'

loop_
_atom_site_label
_atom_site_type_symbol
_atom_site_fract_x
_atom_site_fract_y
_atom_site_fract_z
_atom_site_charge
C1       C      0.532120000000     0.361610000000     0.149200000000     0.355239   
C2       C      0.577200000000     0.478790000000     0.183700000000     0.357178   
C3       C      0.656240000000     0.441220000000     0.151870000000     0.355158   
C4       C      0.579080000000     0.456240000000     0.087220000000     0.355105   
C5       C      0.511440000000     0.535310000000     0.424600000000     0.353765   
C6       C      0.464440000000     0.615720000000     0.397320000000     0.352419   
C7       C      0.499910000000     0.562690000000     0.333220000000     0.353613   
C8       C      0.397190000000     0.494560000000     0.400780000000     0.355427   
C9       C      0.893570000000     0.493050000000     0.165510000000     0.355535   
C10      C      0.999570000000     0.486680000000     0.187880000000     0.354674   
C11      C      0.899080000000     0.398580000000     0.136860000000     0.354394   
C12      C      0.985170000000     0.510180000000     0.097140000000     0.355012   
C13      C      0.235540000000     0.655470000000     0.378760000000     0.356518   
C14      C      0.144370000000     0.542800000000     0.351090000000     0.356343   
C15      C      0.240650000000     0.557630000000     0.409890000000     0.355857   
C16      C      0.150180000000     0.578740000000     0.445450000000     0.35571    
C17      C      0.567490000000     0.179290000000     0.141740000000     0.354743   
C18      C      0.589790000000     0.108380000000     0.073010000000     0.354869   
C19      C      0.676670000000     0.193910000000     0.136000000000     0.354072   
C20      C      0.579690000000     0.080450000000     0.165890000000     0.353768   
C21      C      0.381020000000     0.874610000000     0.375820000000     0.354628   
C22      C      0.498050000000     0.948810000000     0.417620000000     0.353423   
C23      C      0.454610000000     0.829950000000     0.389400000000     0.354926   
C24      C      0.490290000000     0.930040000000     0.324580000000     0.355022   
C25      C      0.590570000000     0.021710000000     0.240640000000    -0.0402873  
C26      C      0.590370000000     0.035820000000     0.188400000000    -0.0242404  
C27      C      0.548010000000     0.964490000000     0.259790000000     0.0200587  
C28      C      0.575790000000     0.010880000000     0.213250000000     0.0208232  
C29      C      0.532240000000     0.940290000000     0.284980000000    -0.0235517  
C30      C      0.546810000000     0.976800000000     0.209350000000    -0.0412991  
C31      C      0.532910000000     0.953810000000     0.232490000000    -0.0404561  
C32      C      0.576730000000     0.998690000000     0.263750000000    -0.0401853  
C33      C      0.579270000000     0.050280000000     0.457120000000    -0.0403327  
C34      C      0.556240000000     0.988130000000     0.440670000000    -0.0236428  
C35      C      0.598500000000     0.068020000000     0.006100000000     0.0206696  
C36      C      0.571020000000     0.015940000000     0.463510000000     0.020372   
C37      C      0.612830000000     0.095640000000     0.029080000000    -0.0239405  
C38      C      0.576110000000     0.007710000000     0.491440000000    -0.0404247  
C39      C      0.589710000000     0.033560000000     0.012590000000    -0.0396605  
C40      C      0.592780000000     0.076110000000     0.978290000000    -0.0411012  
C41      C      0.318940000000     0.798440000000     0.332660000000    -0.0395687  
C42      C      0.323920000000     0.855090000000     0.349590000000    -0.0244247  
C43      C      0.267330000000     0.742130000000     0.344800000000     0.020195   
C44      C      0.304010000000     0.815770000000     0.347550000000     0.0279279  
C45      C      0.248240000000     0.702730000000     0.344430000000    -0.0231288  
C46      C      0.270770000000     0.795980000000     0.361260000000    -0.0421233  
C47      C      0.252590000000     0.759440000000     0.359920000000    -0.0378843  
C48      C      0.300790000000     0.761870000000     0.331400000000    -0.038172   
C49      C      0.795710000000     0.247400000000     0.139950000000    -0.0401163  
C50      C      0.734080000000     0.218520000000     0.162170000000    -0.0239752  
C51      C      0.841970000000     0.306010000000     0.153690000000     0.0214874  
C52      C      0.771810000000     0.248880000000     0.159540000000     0.0201839  
C53      C      0.879050000000     0.337110000000     0.150100000000    -0.0245409  
C54      C      0.783120000000     0.279230000000     0.176010000000    -0.0408826  
C55      C      0.817950000000     0.307610000000     0.173080000000    -0.0395142  
C56      C      0.830500000000     0.275810000000     0.136960000000    -0.0420747  
C57      C      0.104090000000     0.511610000000     0.235560000000    -0.0408269  
C58      C      0.048460000000     0.477570000000     0.205300000000    -0.0240804  
C59      C      0.107400000000     0.493370000000     0.283890000000     0.0211394  
C60      C      0.069180000000     0.482970000000     0.232580000000     0.020592   
C61      C      0.127340000000     0.499980000000     0.311730000000    -0.0239387  
C62      C      0.053380000000     0.459780000000     0.255530000000    -0.0397752  
C63      C      0.072300000000     0.465010000000     0.281050000000    -0.0413997  
C64      C      0.123030000000     0.516820000000     0.261070000000    -0.0394418  
C65      C      0.088240000000     0.579530000000     0.055870000000    -0.0397022  
C66      C      0.027050000000     0.565890000000     0.073250000000    -0.0244428  
C67      C      0.107150000000     0.597460000000     0.506920000000     0.0203542  
C68      C      0.054970000000     0.577000000000     0.050110000000     0.0212873  
C69      C      0.134650000000     0.607400000000     0.483600000000    -0.0234227  
C70      C      0.047760000000     0.584270000000     0.022480000000    -0.0413441  
C71      C      0.073640000000     0.594330000000     0.501020000000    -0.0398223  
C72      C      0.114110000000     0.589590000000     0.034410000000    -0.0403965  
C73      C      0.505230000000     0.734910000000     0.409770000000    -0.0404438  
C74      C      0.485590000000     0.672010000000     0.422130000000    -0.0243953  
C75      C      0.468850000000     0.760920000000     0.422480000000     0.0206546  
C76      C      0.479400000000     0.702790000000     0.421550000000     0.0205966  
C77      C      0.463750000000     0.792330000000     0.423350000000    -0.023887   
C78      C      0.447950000000     0.699780000000     0.433330000000    -0.0400806  
C79      C      0.442630000000     0.728580000000     0.433670000000    -0.0409597  
C80      C      0.499980000000     0.763740000000     0.410230000000    -0.0398722  
C81      C      0.268920000000     0.476240000000     0.428540000000    -0.0381391  
C82      C      0.260760000000     0.527000000000     0.442680000000    -0.0235177  
C83      C      0.324990000000     0.476880000000     0.437280000000     0.0279472  
C84      C      0.283160000000     0.509540000000     0.440970000000     0.020645   
C85      C      0.347560000000     0.459710000000     0.434560000000    -0.0231847  
C86      C      0.318640000000     0.526640000000     0.451170000000    -0.0382247  
C87      C      0.339430000000     0.510450000000     0.449290000000    -0.0388056  
C88      C      0.289720000000     0.460070000000     0.426620000000    -0.0411434  
C89      C      0.790410000000     0.490190000000     0.204070000000    -0.0429952  
C90      C      0.849620000000     0.491000000000     0.201070000000    -0.0254848  
C91      C      0.735710000000     0.442130000000     0.184070000000     0.0199994  
C92      C      0.809960000000     0.474210000000     0.195080000000     0.0234837  
C93      C      0.696070000000     0.425440000000     0.178010000000    -0.023306   
C94      C      0.792120000000     0.442160000000     0.180400000000    -0.0385378  
C95      C      0.755300000000     0.426310000000     0.174800000000    -0.0406463  
C96      C      0.753570000000     0.474250000000     0.198620000000    -0.0387342  
C97      C      0.559050000000     0.269750000000     0.182410000000    -0.0378364  
C98      C      0.548190000000     0.208130000000     0.177000000000    -0.0237292  
C99      C      0.510180000000     0.282260000000     0.178410000000     0.0263627  
C100     C      0.535100000000     0.234090000000     0.177190000000     0.02045    
C101     C      0.497150000000     0.308240000000     0.178700000000    -0.0246896  
C102     C      0.498690000000     0.222780000000     0.172200000000    -0.0392047  
C103     C      0.486360000000     0.246700000000     0.172660000000    -0.0427491  
C104     C      0.546680000000     0.293650000000     0.183000000000    -0.0398326  
C105     C      0.587760000000     0.507610000000     0.469860000000    -0.0410863  
C106     C      0.540580000000     0.500110000000     0.433900000000    -0.0242661  
C107     C      0.574030000000     0.466050000000     0.008520000000     0.02087    
C108     C      0.552240000000     0.488240000000     0.459910000000     0.0209587  
C109     C      0.585270000000     0.454560000000     0.034970000000    -0.0237964  
C110     C      0.527580000000     0.457960000000     0.474670000000    -0.0395815  
C111     C      0.538400000000     0.446980000000     0.998820000000    -0.0398835  
C112     C      0.598540000000     0.496680000000     0.494060000000    -0.0407177  
C113     C      0.578410000000     0.553410000000     0.285870000000    -0.0393697  
C114     C      0.552810000000     0.591320000000     0.301180000000    -0.0246698  
C115     C      0.590800000000     0.548270000000     0.236030000000     0.0200312  
C116     C      0.566250000000     0.576560000000     0.278420000000     0.0221046  
C117     C      0.602870000000     0.532250000000     0.213280000000    -0.0230817  
C118     C      0.565980000000     0.585090000000     0.249570000000    -0.0418883  
C119     C      0.578090000000     0.570970000000     0.228520000000    -0.0399143  
C120     C      0.590490000000     0.539280000000     0.264820000000    -0.0396876  
C121     C      0.532120000000     0.361610000000     0.649200000000     0.355244   
C122     C      0.577200000000     0.478790000000     0.683700000000     0.357099   
C123     C      0.656240000000     0.441220000000     0.651870000000     0.355009   
C124     C      0.579080000000     0.456240000000     0.587220000000     0.355105   
C125     C      0.511440000000     0.535310000000     0.924600000000     0.35375    
C126     C      0.464440000000     0.615720000000     0.897320000000     0.352466   
C127     C      0.499910000000     0.562690000000     0.833220000000     0.353601   
C128     C      0.397190000000     0.494560000000     0.900780000000     0.355427   
C129     C      0.893570000000     0.493050000000     0.665510000000     0.355537   
C130     C      0.999570000000     0.486690000000     0.687880000000     0.354691   
C131     C      0.899080000000     0.398580000000     0.636850000000     0.35438    
C132     C      0.985170000000     0.510180000000     0.597140000000     0.354837   
C133     C      0.235550000000     0.655470000000     0.878770000000     0.356635   
C134     C      0.144370000000     0.542800000000     0.851090000000     0.356486   
C135     C      0.240650000000     0.557630000000     0.909890000000     0.356156   
C136     C      0.150180000000     0.578740000000     0.945440000000     0.355785   
C137     C      0.567490000000     0.179300000000     0.641740000000     0.354873   
C138     C      0.589790000000     0.108380000000     0.573010000000     0.35471    
C139     C      0.676670000000     0.193910000000     0.636000000000     0.354075   
C140     C      0.579690000000     0.080450000000     0.665890000000     0.35379    
C141     C      0.381020000000     0.874610000000     0.875830000000     0.354571   
C142     C      0.498050000000     0.948810000000     0.917620000000     0.353274   
C143     C      0.454610000000     0.829950000000     0.889400000000     0.354925   
C144     C      0.490290000000     0.930040000000     0.824580000000     0.355111   
C145     C      0.590570000000     0.021710000000     0.740640000000    -0.0402942  
C146     C      0.590360000000     0.035820000000     0.688400000000    -0.0241005  
C147     C      0.548010000000     0.964490000000     0.759790000000     0.0199958  
C148     C      0.575790000000     0.010880000000     0.713250000000     0.0207676  
C149     C      0.532240000000     0.940290000000     0.784980000000    -0.0235218  
C150     C      0.546810000000     0.976800000000     0.709350000000    -0.0412788  
C151     C      0.532910000000     0.953810000000     0.732480000000    -0.040435   
C152     C      0.576730000000     0.998700000000     0.763750000000    -0.0401016  
C153     C      0.579270000000     0.050280000000     0.957120000000    -0.04032    
C154     C      0.556240000000     0.988130000000     0.940670000000    -0.023643   
C155     C      0.598500000000     0.068020000000     0.506100000000     0.0206908  
C156     C      0.571020000000     0.015940000000     0.963510000000     0.0203509  
C157     C      0.612830000000     0.095640000000     0.529080000000    -0.0239527  
C158     C      0.576110000000     0.007710000000     0.991450000000    -0.0403935  
C159     C      0.589710000000     0.033560000000     0.512590000000    -0.0396497  
C160     C      0.592780000000     0.076110000000     0.478290000000    -0.0411115  
C161     C      0.318940000000     0.798440000000     0.832670000000    -0.0395539  
C162     C      0.323920000000     0.855100000000     0.849590000000    -0.0244518  
C163     C      0.267330000000     0.742130000000     0.844800000000     0.0201983  
C164     C      0.304010000000     0.815770000000     0.847550000000     0.0279391  
C165     C      0.248240000000     0.702740000000     0.844430000000    -0.0231665  
C166     C      0.270770000000     0.795980000000     0.861260000000    -0.0421557  
C167     C      0.252590000000     0.759440000000     0.859920000000    -0.0378735  
C168     C      0.300790000000     0.761870000000     0.831400000000    -0.0381489  
C169     C      0.795710000000     0.247400000000     0.639950000000    -0.040098   
C170     C      0.734070000000     0.218520000000     0.662170000000    -0.0238995  
C171     C      0.841970000000     0.306010000000     0.653690000000     0.021493   
C172     C      0.771810000000     0.248880000000     0.659540000000     0.0201439  
C173     C      0.879050000000     0.337110000000     0.650100000000    -0.0245336  
C174     C      0.783120000000     0.279230000000     0.676010000000    -0.0408639  
C175     C      0.817950000000     0.307610000000     0.673080000000    -0.0395219  
C176     C      0.830500000000     0.275810000000     0.636960000000    -0.042083   
C177     C      0.104090000000     0.511610000000     0.735560000000    -0.0408003  
C178     C      0.048460000000     0.477570000000     0.705300000000    -0.0240157  
C179     C      0.107400000000     0.493370000000     0.783890000000     0.0211935  
C180     C      0.069180000000     0.482980000000     0.732580000000     0.0205426  
C181     C      0.127340000000     0.499970000000     0.811730000000    -0.0240126  
C182     C      0.053380000000     0.459780000000     0.755540000000    -0.0397305  
C183     C      0.072310000000     0.465010000000     0.781050000000    -0.0414279  
C184     C      0.123030000000     0.516820000000     0.761070000000    -0.0394708  
C185     C      0.088240000000     0.579530000000     0.555870000000    -0.0396893  
C186     C      0.027060000000     0.565890000000     0.573250000000    -0.0244708  
C187     C      0.107150000000     0.597460000000     0.006920000000     0.0203389  
C188     C      0.054960000000     0.577000000000     0.550110000000     0.0212899  
C189     C      0.134650000000     0.607400000000     0.983600000000    -0.0234208  
C190     C      0.047760000000     0.584270000000     0.522480000000    -0.0413425  
C191     C      0.073640000000     0.594320000000     0.001020000000    -0.0398302  
C192     C      0.114110000000     0.589590000000     0.534410000000    -0.0404026  
C193     C      0.505230000000     0.734910000000     0.909770000000    -0.0404274  
C194     C      0.485590000000     0.672010000000     0.922130000000    -0.0243939  
C195     C      0.468850000000     0.760910000000     0.922480000000     0.0207027  
C196     C      0.479400000000     0.702790000000     0.921550000000     0.0205872  
C197     C      0.463750000000     0.792340000000     0.923350000000    -0.0238902  
C198     C      0.447950000000     0.699780000000     0.933320000000    -0.0400384  
C199     C      0.442630000000     0.728590000000     0.933670000000    -0.0410316  
C200     C      0.499980000000     0.763740000000     0.910230000000    -0.0399004  
C201     C      0.268930000000     0.476240000000     0.928540000000    -0.0380577  
C202     C      0.260760000000     0.527010000000     0.942680000000    -0.0234489  
C203     C      0.324990000000     0.476880000000     0.937280000000     0.0279568  
C204     C      0.283160000000     0.509540000000     0.940970000000     0.0205801  
C205     C      0.347570000000     0.459710000000     0.934560000000    -0.023183   
C206     C      0.318640000000     0.526640000000     0.951170000000    -0.0381964  
C207     C      0.339430000000     0.510450000000     0.949290000000    -0.0388178  
C208     C      0.289720000000     0.460070000000     0.926620000000    -0.0411705  
C209     C      0.790410000000     0.490190000000     0.704070000000    -0.0429996  
C210     C      0.849620000000     0.491000000000     0.701070000000    -0.0254404  
C211     C      0.735710000000     0.442130000000     0.684070000000     0.0200028  
C212     C      0.809960000000     0.474210000000     0.695080000000     0.0234719  
C213     C      0.696070000000     0.425440000000     0.678010000000    -0.0233125  
C214     C      0.792120000000     0.442160000000     0.680400000000    -0.0385324  
C215     C      0.755300000000     0.426310000000     0.674800000000    -0.0406493  
C216     C      0.753570000000     0.474250000000     0.698610000000    -0.0387204  
C217     C      0.559050000000     0.269750000000     0.682410000000    -0.037849   
C218     C      0.548190000000     0.208130000000     0.677000000000    -0.0237124  
C219     C      0.510180000000     0.282260000000     0.678400000000     0.026343   
C220     C      0.535090000000     0.234090000000     0.677190000000     0.0204674  
C221     C      0.497150000000     0.308240000000     0.678700000000    -0.0246794  
C222     C      0.498690000000     0.222780000000     0.672200000000    -0.0392406  
C223     C      0.486360000000     0.246700000000     0.672660000000    -0.0426942  
C224     C      0.546680000000     0.293650000000     0.683000000000    -0.039823   
C225     C      0.587760000000     0.507610000000     0.969860000000    -0.0411446  
C226     C      0.540580000000     0.500110000000     0.933900000000    -0.0243021  
C227     C      0.574030000000     0.466050000000     0.508520000000     0.0209983  
C228     C      0.552240000000     0.488240000000     0.959910000000     0.0210167  
C229     C      0.585270000000     0.454560000000     0.534970000000    -0.0238423  
C230     C      0.527580000000     0.457960000000     0.974670000000    -0.0396612  
C231     C      0.538400000000     0.446970000000     0.498820000000    -0.0400594  
C232     C      0.598540000000     0.496680000000     0.994060000000    -0.0406084  
C233     C      0.578410000000     0.553410000000     0.785870000000    -0.0393687  
C234     C      0.552810000000     0.591320000000     0.801180000000    -0.024668   
C235     C      0.590800000000     0.548270000000     0.736030000000     0.0200339  
C236     C      0.566250000000     0.576560000000     0.778420000000     0.0221067  
C237     C      0.602870000000     0.532250000000     0.713280000000    -0.023088   
C238     C      0.565980000000     0.585090000000     0.749570000000    -0.0418857  
C239     C      0.578090000000     0.570970000000     0.728520000000    -0.039915   
C240     C      0.590490000000     0.539280000000     0.764820000000    -0.039688   
Cd1      Cd     0.586470000000     0.434400000000     0.143470000000     0.507753   
Cd2      Cd     0.467870000000     0.552580000000     0.388940000000     0.508426   
Cd3      Cd     0.944270000000     0.472570000000     0.146600000000     0.508773   
Cd4      Cd     0.192730000000     0.583550000000     0.396370000000     0.508647   
Cd5      Cd     0.602880000000     0.140100000000     0.128840000000     0.508789   
Cd6      Cd     0.455910000000     0.894760000000     0.376800000000     0.50789    
Cd7      Cd     0.586470000000     0.434400000000     0.643470000000     0.507755   
Cd8      Cd     0.467870000000     0.552580000000     0.888940000000     0.508444   
Cd9      Cd     0.944270000000     0.472570000000     0.646600000000     0.508761   
Cd10     Cd     0.192730000000     0.583550000000     0.896370000000     0.508675   
Cd11     Cd     0.602880000000     0.140100000000     0.628840000000     0.50879    
Cd12     Cd     0.455910000000     0.894760000000     0.876800000000     0.507876   
H1       H      0.500030000000     0.965270000000     0.291970000000     0.107098   
H2       H      0.618830000000     0.056280000000     0.192260000000     0.0535469  
H3       H      0.589750000000     0.021400000000     0.168720000000     0.0482644  
H4       H      0.588290000000     0.007600000000     0.284760000000     0.0462438  
H5       H      0.612670000000     0.048030000000     0.244150000000     0.046419   
H6       H      0.518700000000     0.912450000000     0.278000000000     0.0506916  
H7       H      0.534800000000     0.968110000000     0.188440000000     0.0454623  
H8       H      0.510310000000     0.927740000000     0.229100000000     0.045519   
H9       H      0.553950000000     0.943760000000     0.299890000000     0.0513673  
H10      H      0.543440000000     0.042190000000     0.193100000000     0.107007   
H11      H      0.557220000000     0.079670000000     0.039230000000     0.107874   
H12      H      0.570070000000     0.999310000000     0.420050000000     0.050086   
H13      H      0.560940000000     0.966180000000     0.446150000000     0.0514254  
H14      H      0.598870000000     0.102420000000     0.972960000000     0.0454773  
H15      H      0.575130000000     0.057020000000     0.435760000000     0.0463696  
H16      H      0.632720000000     0.092870000000     0.042410000000     0.0535096  
H17      H      0.569530000000     0.981280000000     0.496890000000     0.0458095  
H18      H      0.593440000000     0.026720000000     0.034040000000     0.0474091  
H19      H      0.627570000000     0.122260000000     0.019530000000     0.0492334  
H20      H      0.504540000000     0.984570000000     0.448950000000     0.108054   
H21      H      0.277680000000     0.706200000000     0.383390000000     0.108359   
H22      H      0.340870000000     0.866810000000     0.330310000000     0.0551672  
H23      H      0.304260000000     0.864430000000     0.351070000000     0.0412812  
H24      H      0.312910000000     0.748980000000     0.320060000000     0.0470442  
H25      H      0.344750000000     0.813200000000     0.322220000000     0.0585784  
H26      H      0.218810000000     0.691980000000     0.341940000000     0.0536949  
H27      H      0.259030000000     0.808840000000     0.373170000000     0.0445168  
H28      H      0.227100000000     0.744610000000     0.370820000000     0.047551   
H29      H      0.256820000000     0.693180000000     0.325730000000     0.0486787  
H30      H      0.333780000000     0.866320000000     0.394670000000     0.105772   
H31      H      0.859890000000     0.355570000000     0.114970000000     0.106751   
H32      H      0.734240000000     0.193390000000     0.161050000000     0.0518106  
H33      H      0.722050000000     0.219070000000     0.183050000000     0.0502433  
H34      H      0.848430000000     0.274260000000     0.121550000000     0.0442301  
H35      H      0.787300000000     0.224340000000     0.126830000000     0.0465224  
H36      H      0.890830000000     0.347710000000     0.171460000000     0.0551718  
H37      H      0.764950000000     0.281050000000     0.191000000000     0.0447755  
H38      H      0.826160000000     0.330910000000     0.185840000000     0.0486144  
H39      H      0.896990000000     0.329030000000     0.139670000000     0.0459615  
H40      H      0.722180000000     0.239860000000     0.124330000000     0.10697    
H41      H      0.099170000000     0.526790000000     0.326020000000     0.107324   
H42      H      0.067040000000     0.489790000000     0.186960000000     0.0488363  
H43      H      0.031690000000     0.449090000000     0.200620000000     0.0535941  
H44      H      0.149820000000     0.539230000000     0.263070000000     0.0483189  
H45      H      0.116580000000     0.530040000000     0.218220000000     0.045237   
H46      H      0.117930000000     0.475000000000     0.323510000000     0.0478184  
H47      H      0.026300000000     0.437780000000     0.253740000000     0.0470429  
H48      H      0.059520000000     0.447020000000     0.298620000000     0.0451154  
H49      H      0.156480000000     0.510660000000     0.307630000000     0.0548136  
H50      H      0.028640000000     0.509740000000     0.224610000000     0.107154   
H51      H      0.110410000000     0.551350000000     0.475300000000     0.107709   
H52      H      0.040270000000     0.575700000000     0.094350000000     0.054256   
H53      H      0.009370000000     0.577170000000     0.069340000000     0.0494003  
H54      H      0.139550000000     0.591210000000     0.039220000000     0.0462044  
H55      H      0.094110000000     0.573590000000     0.076960000000     0.0471321  
H56      H      0.132710000000     0.625630000000     0.468240000000     0.0515933  
H57      H      0.022070000000     0.582030000000     0.017530000000     0.0456912  
H58      H      0.067520000000     0.599640000000     0.479790000000     0.0465735  
H59      H      0.162280000000     0.621910000000     0.492640000000     0.0508401  
H60      H      0.002940000000     0.513140000000     0.055670000000     0.10758    
H61      H      0.446640000000     0.780960000000     0.378860000000     0.106814   
H62      H      0.514220000000     0.680360000000     0.417810000000     0.0526049  
H63      H      0.479190000000     0.660000000000     0.443760000000     0.0514585  
H64      H      0.520330000000     0.788380000000     0.401230000000     0.0479714  
H65      H      0.529600000000     0.737760000000     0.400440000000     0.045535   
H66      H      0.442400000000     0.788280000000     0.438830000000     0.0494791  
H67      H      0.427650000000     0.675170000000     0.442390000000     0.0464229  
H68      H      0.418240000000     0.725730000000     0.442950000000     0.0459901  
H69      H      0.488820000000     0.815540000000     0.431170000000     0.0530586  
H70      H      0.444110000000     0.648650000000     0.389210000000     0.106755   
H71      H      0.349870000000     0.449620000000     0.389670000000     0.10574    
H72      H      0.232180000000     0.507150000000     0.446850000000     0.0536956  
H73      H      0.270000000000     0.546200000000     0.460550000000     0.0489444  
H74      H      0.278320000000     0.434440000000     0.416820000000     0.0446732  
H75      H      0.241760000000     0.462840000000     0.420220000000     0.0473961  
H76      H      0.368270000000     0.469160000000     0.451720000000     0.0527054  
H77      H      0.330260000000     0.552540000000     0.460500000000     0.0458372  
H78      H      0.366780000000     0.524110000000     0.457210000000     0.0573631  
H79      H      0.330130000000     0.430940000000     0.437250000000     0.0398042  
H80      H      0.283420000000     0.550020000000     0.401260000000     0.109346   
H81      H      0.710190000000     0.462140000000     0.142650000000     0.107626   
H82      H      0.858540000000     0.514130000000     0.215250000000     0.0442689  
H83      H      0.854850000000     0.471750000000     0.212240000000     0.0567638  
H84      H      0.738940000000     0.486970000000     0.205710000000     0.0477594  
H85      H      0.803610000000     0.514970000000     0.215340000000     0.0438402  
H86      H      0.684790000000     0.397840000000     0.170860000000     0.0470991  
H87      H      0.806770000000     0.429480000000     0.173230000000     0.0525333  
H88      H      0.742120000000     0.401680000000     0.163330000000     0.0453564  
H89      H      0.681660000000     0.424430000000     0.198030000000     0.0524922  
H90      H      0.865670000000     0.519860000000     0.161370000000     0.106738   
H91      H      0.492220000000     0.313950000000     0.133390000000     0.105805   
H92      H      0.574600000000     0.218970000000     0.188010000000     0.0526842  
H93      H      0.528850000000     0.184110000000     0.188760000000     0.0509322  
H94      H      0.565560000000     0.321050000000     0.187070000000     0.0580285  
H95      H      0.587290000000     0.279080000000     0.186090000000     0.0461145  
H96      H      0.467470000000     0.294180000000     0.181250000000     0.0422361  
H97      H      0.479870000000     0.195410000000     0.167940000000     0.0462649  
H98      H      0.458190000000     0.237420000000     0.168640000000     0.0440255  
H99      H      0.508900000000     0.326080000000     0.197340000000     0.0564991  
H100     H      0.540050000000     0.205040000000     0.130810000000     0.108095   
H101     H      0.565090000000     0.483540000000     0.059020000000     0.107444   
H102     H      0.562710000000     0.511370000000     0.417990000000     0.0474358  
H103     H      0.517020000000     0.477570000000     0.423570000000     0.053772   
H104     H      0.626000000000     0.512090000000     0.501500000000     0.0456743  
H105     H      0.607060000000     0.531250000000     0.458930000000     0.0449636  
H106     H      0.572550000000     0.425520000000     0.035270000000     0.054045   
H107     H      0.499960000000     0.442860000000     0.467540000000     0.0468773  
H108     H      0.518960000000     0.423610000000     0.009990000000     0.048096   
H109     H      0.614770000000     0.464900000000     0.035020000000     0.0512707  
H110     H      0.542280000000     0.541560000000     0.460410000000     0.106811   
H111     H      0.546530000000     0.491640000000     0.209580000000     0.10827    
H112     H      0.569150000000     0.596590000000     0.320930000000     0.0550546  
H113     H      0.555460000000     0.616510000000     0.293900000000     0.0458472  
H114     H      0.599560000000     0.521290000000     0.270980000000     0.0463818  
H115     H      0.578380000000     0.546160000000     0.307970000000     0.0489208  
H116     H      0.615330000000     0.550780000000     0.195180000000     0.0504723  
H117     H      0.556260000000     0.602540000000     0.243330000000     0.0446104  
H118     H      0.577480000000     0.577690000000     0.206360000000     0.0460899  
H119     H      0.624120000000     0.527310000000     0.221760000000     0.0508717  
H120     H      0.498130000000     0.552190000000     0.290020000000     0.107867   
H121     H      0.500030000000     0.965270000000     0.791970000000     0.1071     
H122     H      0.618830000000     0.056280000000     0.692260000000     0.0535035  
H123     H      0.589750000000     0.021400000000     0.668720000000     0.0482235  
H124     H      0.588300000000     0.007600000000     0.784770000000     0.046204   
H125     H      0.612670000000     0.048030000000     0.744150000000     0.0464207  
H126     H      0.518700000000     0.912450000000     0.778000000000     0.0506915  
H127     H      0.534800000000     0.968110000000     0.688440000000     0.0454559  
H128     H      0.510310000000     0.927740000000     0.729100000000     0.0455156  
H129     H      0.553950000000     0.943760000000     0.799890000000     0.0513632  
H130     H      0.543450000000     0.042190000000     0.693100000000     0.10707    
H131     H      0.557220000000     0.079670000000     0.539230000000     0.107873   
H132     H      0.570070000000     0.999310000000     0.920050000000     0.0500829  
H133     H      0.560940000000     0.966180000000     0.946150000000     0.0514271  
H134     H      0.598870000000     0.102420000000     0.472950000000     0.0454683  
H135     H      0.575130000000     0.057020000000     0.935760000000     0.0463697  
H136     H      0.632720000000     0.092870000000     0.542410000000     0.0535167  
H137     H      0.569530000000     0.981280000000     0.996890000000     0.0458116  
H138     H      0.593440000000     0.026720000000     0.534040000000     0.0474106  
H139     H      0.627570000000     0.122260000000     0.519530000000     0.0492415  
H140     H      0.504540000000     0.984570000000     0.948950000000     0.108055   
H141     H      0.277680000000     0.706200000000     0.883390000000     0.108348   
H142     H      0.340870000000     0.866810000000     0.830310000000     0.0551759  
H143     H      0.304260000000     0.864430000000     0.851070000000     0.0412959  
H144     H      0.312910000000     0.748970000000     0.820060000000     0.047028   
H145     H      0.344750000000     0.813200000000     0.822220000000     0.0585709  
H146     H      0.218810000000     0.691980000000     0.841930000000     0.0537046  
H147     H      0.259030000000     0.808840000000     0.873160000000     0.044534   
H148     H      0.227100000000     0.744610000000     0.870820000000     0.0475511  
H149     H      0.256820000000     0.693180000000     0.825730000000     0.04869    
H150     H      0.333780000000     0.866310000000     0.894670000000     0.105787   
H151     H      0.859890000000     0.355570000000     0.614970000000     0.106747   
H152     H      0.734240000000     0.193390000000     0.661050000000     0.0517862  
H153     H      0.722050000000     0.219070000000     0.683050000000     0.0502245  
H154     H      0.848430000000     0.274260000000     0.621550000000     0.0442328  
H155     H      0.787300000000     0.224340000000     0.626830000000     0.0465178  
H156     H      0.890830000000     0.347710000000     0.671460000000     0.0551734  
H157     H      0.764950000000     0.281050000000     0.691000000000     0.0447705  
H158     H      0.826160000000     0.330910000000     0.685840000000     0.0486191  
H159     H      0.896990000000     0.329030000000     0.639670000000     0.0459587  
H160     H      0.722180000000     0.239860000000     0.624330000000     0.106971   
H161     H      0.099170000000     0.526790000000     0.826020000000     0.107253   
H162     H      0.067040000000     0.489800000000     0.686960000000     0.0488243  
H163     H      0.031690000000     0.449080000000     0.700620000000     0.0535721  
H164     H      0.149820000000     0.539230000000     0.763070000000     0.0483296  
H165     H      0.116580000000     0.530040000000     0.718220000000     0.0452288  
H166     H      0.117930000000     0.475000000000     0.823510000000     0.0478446  
H167     H      0.026300000000     0.437780000000     0.753740000000     0.0470301  
H168     H      0.059520000000     0.447020000000     0.798620000000     0.0451234  
H169     H      0.156480000000     0.510650000000     0.807630000000     0.0548345  
H170     H      0.028640000000     0.509740000000     0.724610000000     0.107147   
H171     H      0.110400000000     0.551350000000     0.975300000000     0.10769    
H172     H      0.040260000000     0.575690000000     0.594350000000     0.0542778  
H173     H      0.009370000000     0.577170000000     0.569340000000     0.0494013  
H174     H      0.139550000000     0.591210000000     0.539220000000     0.0462087  
H175     H      0.094110000000     0.573590000000     0.576960000000     0.0471305  
H176     H      0.132710000000     0.625630000000     0.968240000000     0.0515957  
H177     H      0.022070000000     0.582030000000     0.517530000000     0.0456949  
H178     H      0.067520000000     0.599640000000     0.979790000000     0.0465821  
H179     H      0.162280000000     0.621910000000     0.992640000000     0.0508532  
H180     H      0.002940000000     0.513140000000     0.555670000000     0.107574   
H181     H      0.446640000000     0.780960000000     0.878860000000     0.106815   
H182     H      0.514220000000     0.680360000000     0.917810000000     0.0526054  
H183     H      0.479190000000     0.660000000000     0.943760000000     0.0514601  
H184     H      0.520330000000     0.788380000000     0.901230000000     0.0479799  
H185     H      0.529600000000     0.737760000000     0.900440000000     0.0455327  
H186     H      0.442400000000     0.788280000000     0.938830000000     0.0494842  
H187     H      0.427650000000     0.675170000000     0.942390000000     0.0464103  
H188     H      0.418240000000     0.725730000000     0.942950000000     0.0460182  
H189     H      0.488820000000     0.815540000000     0.931170000000     0.0530635  
H190     H      0.444110000000     0.648650000000     0.889200000000     0.106711   
H191     H      0.349870000000     0.449620000000     0.889670000000     0.105739   
H192     H      0.232180000000     0.507150000000     0.946850000000     0.0536763  
H193     H      0.270000000000     0.546200000000     0.960550000000     0.0489325  
H194     H      0.278320000000     0.434440000000     0.916820000000     0.0446802  
H195     H      0.241760000000     0.462840000000     0.920220000000     0.0473636  
H196     H      0.368270000000     0.469160000000     0.951720000000     0.0527139  
H197     H      0.330260000000     0.552540000000     0.960500000000     0.045831   
H198     H      0.366780000000     0.524120000000     0.957210000000     0.0573671  
H199     H      0.330130000000     0.430940000000     0.937240000000     0.03981    
H200     H      0.283420000000     0.550020000000     0.901260000000     0.109363   
H201     H      0.710190000000     0.462140000000     0.642650000000     0.107619   
H202     H      0.858540000000     0.514130000000     0.715250000000     0.044261   
H203     H      0.854850000000     0.471740000000     0.712240000000     0.0567497  
H204     H      0.738940000000     0.486970000000     0.705710000000     0.0477521  
H205     H      0.803610000000     0.514970000000     0.715340000000     0.0438416  
H206     H      0.684790000000     0.397840000000     0.670860000000     0.0471004  
H207     H      0.806770000000     0.429480000000     0.673230000000     0.0525319  
H208     H      0.742120000000     0.401680000000     0.663330000000     0.0453571  
H209     H      0.681660000000     0.424430000000     0.698030000000     0.0524946  
H210     H      0.865670000000     0.519860000000     0.661370000000     0.10674    
H211     H      0.492230000000     0.313950000000     0.633390000000     0.105828   
H212     H      0.574600000000     0.218970000000     0.688010000000     0.0526748  
H213     H      0.528850000000     0.184110000000     0.688760000000     0.0509285  
H214     H      0.565560000000     0.321050000000     0.687070000000     0.0580248  
H215     H      0.587290000000     0.279080000000     0.686090000000     0.0461166  
H216     H      0.467470000000     0.294180000000     0.681250000000     0.0422355  
H217     H      0.479870000000     0.195410000000     0.667940000000     0.0462761  
H218     H      0.458180000000     0.237420000000     0.668640000000     0.0439971  
H219     H      0.508900000000     0.326080000000     0.697340000000     0.0564982  
H220     H      0.540050000000     0.205040000000     0.630810000000     0.108109   
H221     H      0.565090000000     0.483540000000     0.559020000000     0.107445   
H222     H      0.562710000000     0.511370000000     0.917990000000     0.0474461  
H223     H      0.517020000000     0.477570000000     0.923570000000     0.0537805  
H224     H      0.626000000000     0.512090000000     0.001500000000     0.0456355  
H225     H      0.607060000000     0.531250000000     0.958930000000     0.0449845  
H226     H      0.572550000000     0.425520000000     0.535270000000     0.0540582  
H227     H      0.499960000000     0.442860000000     0.967540000000     0.0469023  
H228     H      0.518960000000     0.423620000000     0.509990000000     0.0481704  
H229     H      0.614770000000     0.464900000000     0.535020000000     0.0512822  
H230     H      0.542280000000     0.541560000000     0.960420000000     0.106747   
H231     H      0.546530000000     0.491640000000     0.709580000000     0.10827    
H232     H      0.569150000000     0.596580000000     0.820930000000     0.0550545  
H233     H      0.555460000000     0.616510000000     0.793900000000     0.0458506  
H234     H      0.599560000000     0.521290000000     0.770980000000     0.046382   
H235     H      0.578380000000     0.546160000000     0.807970000000     0.0489202  
H236     H      0.615330000000     0.550780000000     0.695180000000     0.0504742  
H237     H      0.556260000000     0.602540000000     0.743330000000     0.0446114  
H238     H      0.577480000000     0.577690000000     0.706360000000     0.0460918  
H239     H      0.624120000000     0.527310000000     0.721760000000     0.0508673  
H240     H      0.498120000000     0.552190000000     0.790020000000     0.10784    
N1       N      0.506410000000     0.946930000000     0.300100000000    -0.199216   
N2       N      0.568650000000     0.052460000000     0.183410000000    -0.198752   
N3       N      0.583620000000     0.093120000000     0.046900000000    -0.198853   
N4       N      0.517640000000     0.974370000000     0.436820000000    -0.19874    
N5       N      0.255740000000     0.689370000000     0.370630000000    -0.199043   
N6       N      0.345940000000     0.865780000000     0.375500000000    -0.197978   
N7       N      0.877630000000     0.363730000000     0.132310000000    -0.198655   
N8       N      0.711450000000     0.219300000000     0.139090000000    -0.199193   
N9       N      0.121700000000     0.524090000000     0.329600000000    -0.198918   
N10      N      0.025290000000     0.493040000000     0.207540000000    -0.19918    
N11      N      0.129900000000     0.576300000000     0.468410000000    -0.198974   
N12      N      0.004670000000     0.527640000000     0.073890000000    -0.198743   
N13      N      0.454250000000     0.799630000000     0.395130000000    -0.199259   
N14      N      0.462700000000     0.645310000000     0.401260000000    -0.198859   
N15      N      0.364180000000     0.466880000000     0.406280000000    -0.198565   
N16      N      0.263260000000     0.545450000000     0.416010000000    -0.199119   
N17      N      0.689190000000     0.444910000000     0.155930000000    -0.199416   
N18      N      0.869710000000     0.502740000000     0.174240000000    -0.198563   
N19      N      0.506380000000     0.327440000000     0.151670000000    -0.198179   
N20      N      0.551190000000     0.198110000000     0.147720000000    -0.198388   
N21      N      0.575330000000     0.466500000000     0.060780000000    -0.198328   
N22      N      0.531780000000     0.527180000000     0.441590000000    -0.198794   
N23      N      0.572610000000     0.499460000000     0.202660000000    -0.199204   
N24      N      0.514790000000     0.566800000000     0.306970000000    -0.198214   
N25      N      0.506410000000     0.946930000000     0.800100000000    -0.199232   
N26      N      0.568650000000     0.052460000000     0.683410000000    -0.198834   
N27      N      0.583620000000     0.093120000000     0.546900000000    -0.198819   
N28      N      0.517640000000     0.974370000000     0.936820000000    -0.198714   
N29      N      0.255740000000     0.689360000000     0.870630000000    -0.199068   
N30      N      0.345940000000     0.865780000000     0.875500000000    -0.197979   
N31      N      0.877630000000     0.363730000000     0.632310000000    -0.198664   
N32      N      0.711450000000     0.219300000000     0.639090000000    -0.199204   
N33      N      0.121710000000     0.524090000000     0.829600000000    -0.198893   
N34      N      0.025290000000     0.493040000000     0.707540000000    -0.199176   
N35      N      0.129900000000     0.576300000000     0.968410000000    -0.198903   
N36      N      0.004670000000     0.527640000000     0.573890000000    -0.198708   
N37      N      0.454250000000     0.799630000000     0.895130000000    -0.199257   
N38      N      0.462700000000     0.645310000000     0.901260000000    -0.19883    
N39      N      0.364180000000     0.466880000000     0.906280000000    -0.198566   
N40      N      0.263260000000     0.545450000000     0.916010000000    -0.199182   
N41      N      0.689190000000     0.444910000000     0.655930000000    -0.199388   
N42      N      0.869710000000     0.502740000000     0.674240000000    -0.19857    
N43      N      0.506380000000     0.327440000000     0.651670000000    -0.198203   
N44      N      0.551190000000     0.198110000000     0.647720000000    -0.198481   
N45      N      0.575330000000     0.466500000000     0.560780000000    -0.198321   
N46      N      0.531780000000     0.527180000000     0.941590000000    -0.198722   
N47      N      0.572610000000     0.499460000000     0.702660000000    -0.199192   
N48      N      0.514790000000     0.566800000000     0.806970000000    -0.198186   
O1       O      0.550800000000     0.450670000000     0.174600000000    -0.250903   
O2       O      0.591590000000     0.435920000000     0.091060000000    -0.245881   
O3       O      0.550190000000     0.379600000000     0.170400000000    -0.251316   
O4       O      0.629370000000     0.420370000000     0.166660000000    -0.25539    
O5       O      0.651000000000     0.458760000000     0.133090000000    -0.251177   
O6       O      0.539130000000     0.377040000000     0.125360000000    -0.252941   
O7       O      0.607880000000     0.486560000000     0.174270000000    -0.255219   
O8       O      0.570070000000     0.466550000000     0.109280000000    -0.252495   
O9       O      0.486310000000     0.609940000000     0.411050000000    -0.248291   
O10      O      0.410900000000     0.499480000000     0.376160000000    -0.245608   
O11      O      0.504790000000     0.559250000000     0.431410000000    -0.247204   
O12      O      0.518010000000     0.580050000000     0.354670000000    -0.255722   
O13      O      0.467030000000     0.540990000000     0.337370000000    -0.24449    
O14      O      0.498200000000     0.519450000000     0.401320000000    -0.255957   
O15      O      0.444110000000     0.592490000000     0.379680000000    -0.255084   
O16      O      0.415810000000     0.516540000000     0.419860000000    -0.258913   
O17      O      0.979570000000     0.499980000000     0.190210000000    -0.25136    
O18      O      0.965970000000     0.477170000000     0.097150000000    -0.250315   
O19      O      0.900330000000     0.472920000000     0.180150000000    -0.254682   
O20      O      0.921730000000     0.410380000000     0.157000000000    -0.252563   
O21      O      0.897280000000     0.420880000000     0.121010000000    -0.250931   
O22      O      0.910210000000     0.503860000000     0.142140000000    -0.251478   
O23      O      0.994280000000     0.467140000000     0.166480000000    -0.25203    
O24      O      0.985330000000     0.525910000000     0.119790000000    -0.252202   
O25      O      0.139080000000     0.563680000000     0.366020000000    -0.251474   
O26      O      0.174360000000     0.607990000000     0.435950000000    -0.25299    
O27      O      0.208970000000     0.633460000000     0.364210000000    -0.253748   
O28      O      0.215900000000     0.553540000000     0.426790000000    -0.252983   
O29      O      0.243370000000     0.573660000000     0.386820000000    -0.250252   
O30      O      0.242470000000     0.644400000000     0.401440000000    -0.251044   
O31      O      0.171790000000     0.540440000000     0.357120000000    -0.252787   
O32      O      0.145680000000     0.551690000000     0.432440000000    -0.250247   
O33      O      0.564360000000     0.106040000000     0.088170000000    -0.250471   
O34      O      0.609650000000     0.094150000000     0.153200000000    -0.251769   
O35      O      0.569540000000     0.170460000000     0.116410000000    -0.248412   
O36      O      0.657680000000     0.194740000000     0.115720000000    -0.252078   
O37      O      0.661700000000     0.168320000000     0.153080000000    -0.250744   
O38      O      0.581410000000     0.169820000000     0.161080000000    -0.252529   
O39      O      0.621060000000     0.125480000000     0.083430000000    -0.253514   
O40      O      0.560340000000     0.094120000000     0.161490000000    -0.251059   
O41      O      0.464860000000     0.937600000000     0.414280000000    -0.245833   
O42      O      0.496390000000     0.907330000000     0.335650000000    -0.251522   
O43      O      0.398980000000     0.883460000000     0.398760000000    -0.246762   
O44      O      0.463050000000     0.853520000000     0.408080000000    -0.254888   
O45      O      0.446580000000     0.836040000000     0.364930000000    -0.253846   
O46      O      0.397410000000     0.874590000000     0.353400000000    -0.253923   
O47      O      0.511920000000     0.935100000000     0.402210000000    -0.253299   
O48      O      0.468370000000     0.936410000000     0.337490000000    -0.253425   
O49      O      0.550800000000     0.450670000000     0.674600000000    -0.250877   
O50      O      0.591590000000     0.435920000000     0.591060000000    -0.245884   
O51      O      0.550190000000     0.379600000000     0.670400000000    -0.25132    
O52      O      0.629370000000     0.420370000000     0.666660000000    -0.255356   
O53      O      0.651000000000     0.458770000000     0.633090000000    -0.251072   
O54      O      0.539130000000     0.377040000000     0.625360000000    -0.252945   
O55      O      0.607880000000     0.486560000000     0.674260000000    -0.255165   
O56      O      0.570070000000     0.466550000000     0.609280000000    -0.252488   
O57      O      0.486310000000     0.609940000000     0.911050000000    -0.248294   
O58      O      0.410900000000     0.499480000000     0.876160000000    -0.245608   
O59      O      0.504790000000     0.559250000000     0.931410000000    -0.247192   
O60      O      0.518010000000     0.580050000000     0.854670000000    -0.255715   
O61      O      0.467030000000     0.540990000000     0.837370000000    -0.244486   
O62      O      0.498200000000     0.519450000000     0.901320000000    -0.255953   
O63      O      0.444120000000     0.592490000000     0.879680000000    -0.255129   
O64      O      0.415810000000     0.516540000000     0.919860000000    -0.258912   
O65      O      0.979570000000     0.499980000000     0.690210000000    -0.251446   
O66      O      0.965970000000     0.477160000000     0.597150000000    -0.250193   
O67      O      0.900330000000     0.472920000000     0.680150000000    -0.254678   
O68      O      0.921730000000     0.410380000000     0.657000000000    -0.252477   
O69      O      0.897280000000     0.420880000000     0.621010000000    -0.250992   
O70      O      0.910210000000     0.503860000000     0.642140000000    -0.251479   
O71      O      0.994280000000     0.467140000000     0.666480000000    -0.251978   
O72      O      0.985330000000     0.525910000000     0.619790000000    -0.252164   
O73      O      0.139080000000     0.563680000000     0.866020000000    -0.251511   
O74      O      0.174360000000     0.607990000000     0.935950000000    -0.253044   
O75      O      0.208970000000     0.633460000000     0.864210000000    -0.253666   
O76      O      0.215900000000     0.553540000000     0.926790000000    -0.253051   
O77      O      0.243370000000     0.573650000000     0.886830000000    -0.250454   
O78      O      0.242470000000     0.644400000000     0.901440000000    -0.251199   
O79      O      0.171790000000     0.540450000000     0.857120000000    -0.252872   
O80      O      0.145680000000     0.551690000000     0.932440000000    -0.25031    
O81      O      0.564360000000     0.106040000000     0.588170000000    -0.250433   
O82      O      0.609650000000     0.094150000000     0.653200000000    -0.251775   
O83      O      0.569540000000     0.170460000000     0.616420000000    -0.248507   
O84      O      0.657680000000     0.194740000000     0.615720000000    -0.252083   
O85      O      0.661700000000     0.168320000000     0.653080000000    -0.250746   
O86      O      0.581410000000     0.169820000000     0.661080000000    -0.252497   
O87      O      0.621070000000     0.125480000000     0.583430000000    -0.2534     
O88      O      0.560340000000     0.094120000000     0.661490000000    -0.251062   
O89      O      0.464860000000     0.937600000000     0.914280000000    -0.24579    
O90      O      0.496390000000     0.907330000000     0.835640000000    -0.251579   
O91      O      0.398980000000     0.883460000000     0.898760000000    -0.246835   
O92      O      0.463050000000     0.853520000000     0.908080000000    -0.254881   
O93      O      0.446580000000     0.836040000000     0.864930000000    -0.253841   
O94      O      0.397410000000     0.874580000000     0.853400000000    -0.253795   
O95      O      0.511920000000     0.935090000000     0.902210000000    -0.253199   
O96      O      0.468370000000     0.936410000000     0.837490000000    -0.253463   


