data_structure

_audit_creation_method RASPA-1.0
_audit_creation_date 2023-5-23
_audit_author_name 'Poobodin Mano'

_cell_length_a    40.8224
_cell_length_b    40.2815
_cell_length_c    40.2962
_cell_angle_alpha 90.0122
_cell_angle_beta  90.0069
_cell_angle_gamma 103.025
_cell_volume      64557.8

_symmetry_cell_setting          triclinic
_symmetry_space_group_name_Hall 'P 1'
_symmetry_space_group_name_H-M  'P 1'
_symmetry_Int_Tables_number     1

_symmetry_equiv_pos_as_xyz 'x,y,z'

loop_
_atom_site_label
_atom_site_type_symbol
_atom_site_fract_x
_atom_site_fract_y
_atom_site_fract_z
_atom_site_charge
C1       C      0.318610000000     0.340380000000     0.446570000000     0.352491   
C2       C      0.287440000000     0.420830000000     0.365340000000     0.353018   
C3       C      0.216520000000     0.372090000000     0.447110000000     0.354792   
C4       C      0.328300000000     0.450310000000     0.470270000000     0.354721   
C5       C      0.404810000000     0.179580000000     0.537220000000     0.353522   
C6       C      0.485510000000     0.210840000000     0.633590000000     0.353328   
C7       C      0.476290000000     0.116670000000     0.569290000000     0.354413   
C8       C      0.515340000000     0.237810000000     0.528970000000     0.352379   
C9       C      0.471790000000     0.247540000000     0.865520000000     0.353375   
C10      C      0.391830000000     0.280050000000     0.945190000000     0.353137   
C11      C      0.422760000000     0.176550000000     0.948080000000     0.354961   
C12      C      0.500300000000     0.289300000000     0.970490000000     0.354745   
C13      C      0.261920000000     0.441290000000     0.132550000000     0.353335   
C14      C      0.230290000000     0.361030000000     0.035260000000     0.353568   
C15      C      0.169660000000     0.435050000000     0.067970000000     0.354198   
C16      C      0.289460000000     0.472770000000     0.028520000000     0.352404   
C17      C      0.059700000000     0.389920000000     0.060750000000    -0.0430841  
C18      C      0.112080000000     0.419540000000     0.091610000000    -0.0247761  
C19      C      0.052900000000     0.331970000000     0.040350000000     0.0202994  
C20      C      0.091480000000     0.389090000000     0.073640000000     0.0278987  
C21      C      0.531760000000     0.301320000000     0.023080000000    -0.0239282  
C22      C      0.103870000000     0.359520000000     0.069590000000    -0.040237   
C23      C      0.084780000000     0.331210000000     0.052990000000    -0.0385638  
C24      C      0.040500000000     0.361510000000     0.044410000000    -0.0378945  
C25      C      0.383900000000     0.530140000000     0.968260000000    -0.0413198  
C26      C      0.348810000000     0.492060000000     0.011140000000    -0.0241586  
C27      C      0.412150000000     0.088470000000     0.981390000000     0.0204563  
C28      C      0.371260000000     0.525460000000     0.000740000000     0.020549   
C29      C      0.432690000000     0.122660000000     0.970590000000    -0.0236644  
C30      C      0.379020000000     0.552580000000     0.023390000000    -0.0394385  
C31      C      0.399180000000     0.083910000000     0.013750000000    -0.0399888  
C32      C      0.404150000000     0.561450000000     0.958640000000    -0.0407958  
C33      C      0.277370000000     0.346140000000     0.960550000000    -0.0396361  
C34      C      0.220140000000     0.323310000000     0.985730000000    -0.0254653  
C35      C      0.311490000000     0.308230000000     0.940110000000     0.0205445  
C36      C      0.251850000000     0.318000000000     0.969650000000     0.0272831  
C37      C      0.343810000000     0.302720000000     0.925490000000    -0.023722   
C38      C      0.256540000000     0.284950000000     0.964170000000    -0.0426538  
C39      C      0.286140000000     0.280120000000     0.949530000000    -0.0376428  
C40      C      0.307050000000     0.341290000000     0.946020000000    -0.0387933  
C41      C      0.499480000000     0.197230000000     0.771830000000    -0.0400933  
C42      C      0.510610000000     0.230600000000     0.825320000000    -0.0242301  
C43      C      0.520290000000     0.222520000000     0.718980000000     0.0206581  
C44      C      0.513650000000     0.227870000000     0.788200000000     0.0210434  
C45      C      0.523630000000     0.219420000000     0.681950000000    -0.0238254  
C46      C      0.530670000000     0.256000000000     0.769640000000    -0.0409683  
C47      C      0.533850000000     0.253390000000     0.735240000000    -0.0410334  
C48      C      0.502760000000     0.194590000000     0.737460000000    -0.0392552  
C49      C      0.243180000000     0.455240000000     0.234970000000    -0.0395446  
C50      C      0.270850000000     0.479170000000     0.181550000000    -0.0246132  
C51      C      0.272140000000     0.465820000000     0.287920000000     0.0204357  
C52      C      0.271630000000     0.474230000000     0.218580000000     0.0212023  
C53      C      0.272570000000     0.461020000000     0.324970000000    -0.0235557  
C54      C      0.300550000000     0.488520000000     0.237040000000    -0.0414922  
C55      C      0.300810000000     0.484280000000     0.271470000000    -0.0403914  
C56      C      0.243480000000     0.450920000000     0.269380000000    -0.0399175  
C57      C      0.594390000000     0.328090000000     0.522490000000    -0.0394526  
C58      C      0.534520000000     0.297640000000     0.510680000000    -0.024314   
C59      C      0.129590000000     0.361470000000     0.480230000000     0.0205607  
C60      C      0.567500000000     0.320160000000     0.499990000000     0.0205836  
C61      C      0.163250000000     0.382320000000     0.469250000000    -0.0237068  
C62      C      0.071950000000     0.332800000000     0.467440000000    -0.041323   
C63      C      0.102810000000     0.353260000000     0.457620000000    -0.0408676  
C64      C      0.125260000000     0.348460000000     0.512640000000    -0.0399347  
C65      C      0.399960000000     0.052680000000     0.570880000000    -0.0403176  
C66      C      0.459040000000     0.058260000000     0.592490000000    -0.0247964  
C67      C      0.371140000000     0.502570000000     0.540260000000     0.0202129  
C68      C      0.428450000000     0.038850000000     0.574260000000     0.0281905  
C69      C      0.340360000000     0.482620000000     0.522640000000    -0.0239308  
C70      C      0.428070000000     0.506760000000     0.560420000000    -0.0431144  
C71      C      0.399570000000     0.488680000000     0.543760000000    -0.0376038  
C72      C      0.371570000000     0.534730000000     0.553940000000    -0.0384636  
C73      C      0.382320000000     0.256530000000     0.447800000000    -0.0391828  
C74      C      0.343000000000     0.292720000000     0.427780000000    -0.0242161  
C75      C      0.360740000000     0.200410000000     0.471640000000     0.0264312  
C76      C      0.349370000000     0.260440000000     0.442670000000     0.0208522  
C77      C      0.366940000000     0.168920000000     0.488220000000    -0.0249118  
C78      C      0.322180000000     0.234250000000     0.452360000000    -0.0381776  
C79      C      0.327810000000     0.204530000000     0.466880000000    -0.0423749  
C80      C      0.387950000000     0.226740000000     0.462210000000    -0.0390877  
C81      C      0.318610000000     0.840380000000     0.446570000000     0.352595   
C82      C      0.287440000000     0.920830000000     0.365340000000     0.353021   
C83      C      0.216520000000     0.872090000000     0.447110000000     0.354936   
C84      C      0.328300000000     0.950300000000     0.470270000000     0.354701   
C85      C      0.404810000000     0.679580000000     0.537220000000     0.353522   
C86      C      0.485510000000     0.710850000000     0.633590000000     0.353302   
C87      C      0.476290000000     0.616670000000     0.569290000000     0.354413   
C88      C      0.515340000000     0.737810000000     0.528970000000     0.352301   
C89      C      0.471790000000     0.747540000000     0.865520000000     0.353282   
C90      C      0.391830000000     0.780050000000     0.945190000000     0.353209   
C91      C      0.422760000000     0.676550000000     0.948080000000     0.35496    
C92      C      0.500300000000     0.789300000000     0.970490000000     0.354745   
C93      C      0.261920000000     0.941290000000     0.132550000000     0.353189   
C94      C      0.230290000000     0.861030000000     0.035260000000     0.353568   
C95      C      0.169660000000     0.935050000000     0.067970000000     0.354198   
C96      C      0.289460000000     0.972770000000     0.028520000000     0.352405   
C97      C      0.059700000000     0.889920000000     0.060750000000    -0.0430956  
C98      C      0.112080000000     0.919530000000     0.091610000000    -0.0248051  
C99      C      0.052900000000     0.831960000000     0.040350000000     0.0202828  
C100     C      0.091480000000     0.889100000000     0.073640000000     0.0279102  
C101     C      0.531760000000     0.801320000000     0.023080000000    -0.0239337  
C102     C      0.103870000000     0.859520000000     0.069590000000    -0.0402317  
C103     C      0.084780000000     0.831210000000     0.052990000000    -0.0385581  
C104     C      0.040500000000     0.861510000000     0.044410000000    -0.0378752  
C105     C      0.383900000000     0.030140000000     0.968260000000    -0.0413148  
C106     C      0.348810000000     0.992060000000     0.011140000000    -0.0241423  
C107     C      0.412150000000     0.588470000000     0.981390000000     0.0204548  
C108     C      0.371260000000     0.025460000000     0.000740000000     0.0205314  
C109     C      0.432690000000     0.622660000000     0.970590000000    -0.0236637  
C110     C      0.379020000000     0.052580000000     0.023390000000    -0.0394333  
C111     C      0.399180000000     0.583910000000     0.013750000000    -0.0399847  
C112     C      0.404150000000     0.061450000000     0.958640000000    -0.0408     
C113     C      0.277370000000     0.846140000000     0.960550000000    -0.0396367  
C114     C      0.220140000000     0.823310000000     0.985730000000    -0.0254659  
C115     C      0.311490000000     0.808230000000     0.940110000000     0.0205401  
C116     C      0.251850000000     0.818000000000     0.969650000000     0.0272845  
C117     C      0.343810000000     0.802720000000     0.925490000000    -0.023709   
C118     C      0.256540000000     0.784950000000     0.964170000000    -0.0426551  
C119     C      0.286140000000     0.780120000000     0.949530000000    -0.0376388  
C120     C      0.307050000000     0.841290000000     0.946020000000    -0.0387917  
C121     C      0.499480000000     0.697230000000     0.771830000000    -0.0401197  
C122     C      0.510610000000     0.730610000000     0.825320000000    -0.0241619  
C123     C      0.520290000000     0.722520000000     0.718980000000     0.0206397  
C124     C      0.513650000000     0.727880000000     0.788200000000     0.0210316  
C125     C      0.523630000000     0.719420000000     0.681950000000    -0.0238107  
C126     C      0.530670000000     0.756000000000     0.769640000000    -0.0409751  
C127     C      0.533850000000     0.753390000000     0.735240000000    -0.0409964  
C128     C      0.502760000000     0.694590000000     0.737460000000    -0.0392357  
C129     C      0.243180000000     0.955240000000     0.234970000000    -0.0394942  
C130     C      0.270850000000     0.979170000000     0.181550000000    -0.0246086  
C131     C      0.272140000000     0.965820000000     0.287920000000     0.020437   
C132     C      0.271630000000     0.974230000000     0.218580000000     0.0211767  
C133     C      0.272570000000     0.961020000000     0.324970000000    -0.0235198  
C134     C      0.300550000000     0.988520000000     0.237040000000    -0.0414542  
C135     C      0.300810000000     0.984290000000     0.271470000000    -0.0404125  
C136     C      0.243480000000     0.950920000000     0.269380000000    -0.0399379  
C137     C      0.594390000000     0.828090000000     0.522490000000    -0.0394701  
C138     C      0.534520000000     0.797640000000     0.510680000000    -0.0243041  
C139     C      0.129590000000     0.861470000000     0.480230000000     0.020552   
C140     C      0.567500000000     0.820160000000     0.499990000000     0.0205914  
C141     C      0.163250000000     0.882320000000     0.469250000000    -0.0236977  
C142     C      0.071950000000     0.832800000000     0.467440000000    -0.0413292  
C143     C      0.102810000000     0.853260000000     0.457620000000    -0.040861   
C144     C      0.125260000000     0.848460000000     0.512640000000    -0.0399211  
C145     C      0.399960000000     0.552680000000     0.570880000000    -0.0402976  
C146     C      0.459040000000     0.558260000000     0.592490000000    -0.0247868  
C147     C      0.371140000000     0.002570000000     0.540260000000     0.0201642  
C148     C      0.428450000000     0.538850000000     0.574260000000     0.0281675  
C149     C      0.340360000000     0.982620000000     0.522640000000    -0.0239167  
C150     C      0.428070000000     0.006760000000     0.560420000000    -0.0431724  
C151     C      0.399570000000     0.988680000000     0.543760000000    -0.0375437  
C152     C      0.371570000000     0.034730000000     0.553940000000    -0.0384418  
C153     C      0.382320000000     0.756530000000     0.447800000000    -0.0391712  
C154     C      0.343000000000     0.792710000000     0.427780000000    -0.0243129  
C155     C      0.360740000000     0.700410000000     0.471640000000     0.0264301  
C156     C      0.349370000000     0.760440000000     0.442670000000     0.0208806  
C157     C      0.366940000000     0.668920000000     0.488220000000    -0.0249116  
C158     C      0.322180000000     0.734250000000     0.452360000000    -0.0381919  
C159     C      0.327810000000     0.704530000000     0.466880000000    -0.0423696  
C160     C      0.387950000000     0.726740000000     0.462210000000    -0.0390904  
C161     C      0.818610000000     0.340380000000     0.446570000000     0.352492   
C162     C      0.787440000000     0.420830000000     0.365340000000     0.353019   
C163     C      0.716520000000     0.372090000000     0.447110000000     0.354792   
C164     C      0.828300000000     0.450310000000     0.470270000000     0.354721   
C165     C      0.904810000000     0.179580000000     0.537220000000     0.353522   
C166     C      0.985510000000     0.210840000000     0.633590000000     0.353369   
C167     C      0.976290000000     0.116670000000     0.569290000000     0.354414   
C168     C      0.015340000000     0.237810000000     0.528970000000     0.352341   
C169     C      0.971790000000     0.247540000000     0.865520000000     0.353378   
C170     C      0.891830000000     0.280050000000     0.945190000000     0.353138   
C171     C      0.922760000000     0.176550000000     0.948080000000     0.354959   
C172     C      0.000300000000     0.289300000000     0.970490000000     0.354666   
C173     C      0.761920000000     0.441290000000     0.132550000000     0.353335   
C174     C      0.730290000000     0.361030000000     0.035260000000     0.353568   
C175     C      0.669660000000     0.435050000000     0.067970000000     0.354198   
C176     C      0.789460000000     0.472770000000     0.028520000000     0.352404   
C177     C      0.559700000000     0.389920000000     0.060750000000    -0.0430822  
C178     C      0.612080000000     0.419540000000     0.091610000000    -0.0247765  
C179     C      0.552900000000     0.331970000000     0.040350000000     0.0203015  
C180     C      0.591480000000     0.389090000000     0.073640000000     0.0279005  
C181     C      0.031760000000     0.301320000000     0.023080000000    -0.0239314  
C182     C      0.603870000000     0.359520000000     0.069590000000    -0.0402361  
C183     C      0.584780000000     0.331210000000     0.052990000000    -0.0385627  
C184     C      0.540500000000     0.361510000000     0.044410000000    -0.0378926  
C185     C      0.883900000000     0.530140000000     0.968260000000    -0.0413185  
C186     C      0.848810000000     0.492060000000     0.011140000000    -0.024159   
C187     C      0.912150000000     0.088470000000     0.981390000000     0.0204738  
C188     C      0.871260000000     0.525460000000     0.000740000000     0.0205501  
C189     C      0.932690000000     0.122660000000     0.970590000000    -0.0237069  
C190     C      0.879020000000     0.552580000000     0.023390000000    -0.0394372  
C191     C      0.899180000000     0.083910000000     0.013750000000    -0.0399952  
C192     C      0.904150000000     0.561450000000     0.958640000000    -0.0407953  
C193     C      0.777370000000     0.346140000000     0.960550000000    -0.0396357  
C194     C      0.720140000000     0.323310000000     0.985730000000    -0.0254656  
C195     C      0.811490000000     0.308230000000     0.940110000000     0.0205453  
C196     C      0.751850000000     0.318000000000     0.969650000000     0.0272837  
C197     C      0.843810000000     0.302720000000     0.925490000000    -0.0237222  
C198     C      0.756540000000     0.284950000000     0.964170000000    -0.0426534  
C199     C      0.786140000000     0.280120000000     0.949530000000    -0.0376425  
C200     C      0.807050000000     0.341290000000     0.946020000000    -0.038793   
C201     C      0.999480000000     0.197230000000     0.771830000000    -0.03997    
C202     C      0.010610000000     0.230600000000     0.825320000000    -0.0242247  
C203     C      0.020290000000     0.222520000000     0.718980000000     0.0207095  
C204     C      0.013650000000     0.227870000000     0.788200000000     0.0209636  
C205     C      0.023630000000     0.219420000000     0.681950000000    -0.0238677  
C206     C      0.030670000000     0.256000000000     0.769640000000    -0.0409194  
C207     C      0.033850000000     0.253390000000     0.735240000000    -0.041081   
C208     C      0.002760000000     0.194590000000     0.737460000000    -0.0393808  
C209     C      0.743180000000     0.455240000000     0.234970000000    -0.0395442  
C210     C      0.770850000000     0.479170000000     0.181550000000    -0.0246134  
C211     C      0.772140000000     0.465820000000     0.287920000000     0.0204365  
C212     C      0.771630000000     0.474230000000     0.218580000000     0.0212031  
C213     C      0.772570000000     0.461020000000     0.324970000000    -0.0235559  
C214     C      0.800550000000     0.488520000000     0.237040000000    -0.0414916  
C215     C      0.800810000000     0.484280000000     0.271470000000    -0.0403908  
C216     C      0.743480000000     0.450920000000     0.269380000000    -0.0399171  
C217     C      0.094390000000     0.328090000000     0.522490000000    -0.0394532  
C218     C      0.034520000000     0.297640000000     0.510680000000    -0.0243151  
C219     C      0.629590000000     0.361470000000     0.480230000000     0.0205617  
C220     C      0.067500000000     0.320160000000     0.499990000000     0.0205808  
C221     C      0.663250000000     0.382320000000     0.469250000000    -0.023707   
C222     C      0.571950000000     0.332800000000     0.467440000000    -0.0413219  
C223     C      0.602810000000     0.353260000000     0.457620000000    -0.0408659  
C224     C      0.625260000000     0.348460000000     0.512640000000    -0.0399334  
C225     C      0.899960000000     0.052680000000     0.570880000000    -0.0403174  
C226     C      0.959040000000     0.058260000000     0.592490000000    -0.0247966  
C227     C      0.871140000000     0.502570000000     0.540260000000     0.0202135  
C228     C      0.928450000000     0.038850000000     0.574260000000     0.0281922  
C229     C      0.840360000000     0.482620000000     0.522640000000    -0.0239308  
C230     C      0.928070000000     0.506760000000     0.560420000000    -0.0431137  
C231     C      0.899570000000     0.488680000000     0.543760000000    -0.0376025  
C232     C      0.871570000000     0.534730000000     0.553940000000    -0.0384629  
C233     C      0.882320000000     0.256530000000     0.447800000000    -0.0391817  
C234     C      0.843000000000     0.292720000000     0.427780000000    -0.0242165  
C235     C      0.860740000000     0.200410000000     0.471640000000     0.0264324  
C236     C      0.849370000000     0.260440000000     0.442670000000     0.0208534  
C237     C      0.866940000000     0.168920000000     0.488220000000    -0.0249123  
C238     C      0.822180000000     0.234250000000     0.452360000000    -0.0381773  
C239     C      0.827810000000     0.204530000000     0.466880000000    -0.0423745  
C240     C      0.887950000000     0.226740000000     0.462210000000    -0.0390867  
C241     C      0.818610000000     0.840380000000     0.446570000000     0.352675   
C242     C      0.787440000000     0.920830000000     0.365340000000     0.353021   
C243     C      0.716520000000     0.872090000000     0.447110000000     0.354934   
C244     C      0.828300000000     0.950300000000     0.470270000000     0.354704   
C245     C      0.904810000000     0.679580000000     0.537220000000     0.353522   
C246     C      0.985510000000     0.710850000000     0.633590000000     0.353342   
C247     C      0.976290000000     0.616670000000     0.569290000000     0.354414   
C248     C      0.015340000000     0.737810000000     0.528970000000     0.352263   
C249     C      0.971790000000     0.747540000000     0.865520000000     0.353285   
C250     C      0.891830000000     0.780050000000     0.945190000000     0.353212   
C251     C      0.922760000000     0.676550000000     0.948080000000     0.354961   
C252     C      0.000300000000     0.789300000000     0.970490000000     0.354666   
C253     C      0.761920000000     0.941290000000     0.132550000000     0.35319    
C254     C      0.730290000000     0.861030000000     0.035260000000     0.353596   
C255     C      0.669660000000     0.935050000000     0.067970000000     0.354314   
C256     C      0.789460000000     0.972770000000     0.028520000000     0.352405   
C257     C      0.559710000000     0.889920000000     0.060750000000    -0.0430793  
C258     C      0.612080000000     0.919530000000     0.091610000000    -0.0248382  
C259     C      0.552900000000     0.831960000000     0.040350000000     0.0202902  
C260     C      0.591480000000     0.889100000000     0.073640000000     0.0279273  
C261     C      0.031760000000     0.801320000000     0.023080000000    -0.0239348  
C262     C      0.603870000000     0.859520000000     0.069590000000    -0.0402361  
C263     C      0.584780000000     0.831210000000     0.052990000000    -0.0385566  
C264     C      0.540500000000     0.861510000000     0.044410000000    -0.0378881  
C265     C      0.883900000000     0.030140000000     0.968260000000    -0.0413094  
C266     C      0.848810000000     0.992060000000     0.011140000000    -0.0241416  
C267     C      0.912150000000     0.588470000000     0.981390000000     0.0204576  
C268     C      0.871260000000     0.025460000000     0.000740000000     0.0205297  
C269     C      0.932690000000     0.622660000000     0.970590000000    -0.0236652  
C270     C      0.879020000000     0.052580000000     0.023390000000    -0.0394283  
C271     C      0.899180000000     0.583910000000     0.013750000000    -0.0399842  
C272     C      0.904150000000     0.061450000000     0.958640000000    -0.0408072  
C273     C      0.777370000000     0.846140000000     0.960550000000    -0.0396448  
C274     C      0.720140000000     0.823310000000     0.985730000000    -0.0254672  
C275     C      0.811490000000     0.808230000000     0.940110000000     0.0205053  
C276     C      0.751850000000     0.818000000000     0.969650000000     0.0272897  
C277     C      0.843820000000     0.802720000000     0.925490000000    -0.0236562  
C278     C      0.756540000000     0.784950000000     0.964170000000    -0.0426628  
C279     C      0.786140000000     0.780120000000     0.949530000000    -0.0376229  
C280     C      0.807050000000     0.841290000000     0.946020000000    -0.0387764  
C281     C      0.999480000000     0.697230000000     0.771830000000    -0.0399992  
C282     C      0.010610000000     0.730610000000     0.825320000000    -0.0241593  
C283     C      0.020290000000     0.722520000000     0.718980000000     0.0206879  
C284     C      0.013650000000     0.727880000000     0.788200000000     0.0209572  
C285     C      0.023630000000     0.719420000000     0.681950000000    -0.0238518  
C286     C      0.030670000000     0.756000000000     0.769640000000    -0.0409398  
C287     C      0.033850000000     0.753390000000     0.735240000000    -0.041037   
C288     C      0.002760000000     0.694590000000     0.737460000000    -0.0393588  
C289     C      0.743180000000     0.955240000000     0.234970000000    -0.0394937  
C290     C      0.770850000000     0.979170000000     0.181550000000    -0.0246088  
C291     C      0.772140000000     0.965820000000     0.287920000000     0.0204379  
C292     C      0.771630000000     0.974230000000     0.218580000000     0.0211775  
C293     C      0.772570000000     0.961020000000     0.324970000000    -0.0235202  
C294     C      0.800550000000     0.988520000000     0.237040000000    -0.0414536  
C295     C      0.800810000000     0.984290000000     0.271470000000    -0.040412   
C296     C      0.743480000000     0.950920000000     0.269380000000    -0.0399374  
C297     C      0.094390000000     0.828090000000     0.522490000000    -0.0394736  
C298     C      0.034520000000     0.797640000000     0.510680000000    -0.0243217  
C299     C      0.629590000000     0.861470000000     0.480230000000     0.020554   
C300     C      0.067500000000     0.820160000000     0.499990000000     0.0205922  
C301     C      0.663250000000     0.882320000000     0.469250000000    -0.0236985  
C302     C      0.571950000000     0.832800000000     0.467440000000    -0.0413264  
C303     C      0.602810000000     0.853260000000     0.457620000000    -0.0408603  
C304     C      0.625260000000     0.848460000000     0.512640000000    -0.0399212  
C305     C      0.899960000000     0.552680000000     0.570880000000    -0.0402975  
C306     C      0.959040000000     0.558260000000     0.592490000000    -0.024787   
C307     C      0.871140000000     0.002570000000     0.540260000000     0.0201649  
C308     C      0.928450000000     0.538850000000     0.574260000000     0.0281692  
C309     C      0.840360000000     0.982620000000     0.522640000000    -0.0239166  
C310     C      0.928070000000     0.006760000000     0.560420000000    -0.0431715  
C311     C      0.899570000000     0.988680000000     0.543760000000    -0.0375425  
C312     C      0.871570000000     0.034730000000     0.553940000000    -0.0384412  
C313     C      0.882320000000     0.756530000000     0.447800000000    -0.0392068  
C314     C      0.843000000000     0.792710000000     0.427780000000    -0.0243166  
C315     C      0.860740000000     0.700410000000     0.471640000000     0.0264227  
C316     C      0.849370000000     0.760440000000     0.442670000000     0.020895   
C317     C      0.866940000000     0.668920000000     0.488220000000    -0.0249087  
C318     C      0.822180000000     0.734250000000     0.452360000000    -0.0381988  
C319     C      0.827810000000     0.704530000000     0.466880000000    -0.0423626  
C320     C      0.887950000000     0.726740000000     0.462210000000    -0.0390699  
Cd1      Cd     0.287100000000     0.395960000000     0.432360000000     0.508347   
Cd2      Cd     0.470250000000     0.186490000000     0.566930000000     0.508637   
Cd3      Cd     0.446750000000     0.247800000000     0.932320000000     0.508337   
Cd4      Cd     0.238020000000     0.427170000000     0.065670000000     0.508564   
Cd5      Cd     0.287100000000     0.895960000000     0.432360000000     0.50837    
Cd6      Cd     0.470250000000     0.686490000000     0.566930000000     0.508618   
Cd7      Cd     0.446750000000     0.747800000000     0.932320000000     0.508321   
Cd8      Cd     0.238020000000     0.927170000000     0.065670000000     0.508547   
Cd9      Cd     0.787100000000     0.395960000000     0.432360000000     0.508348   
Cd10     Cd     0.970250000000     0.186490000000     0.566930000000     0.508654   
Cd11     Cd     0.946750000000     0.247800000000     0.932320000000     0.508338   
Cd12     Cd     0.738020000000     0.427170000000     0.065670000000     0.508564   
Cd13     Cd     0.787110000000     0.895960000000     0.432360000000     0.508366   
Cd14     Cd     0.970250000000     0.686490000000     0.566930000000     0.508635   
Cd15     Cd     0.946750000000     0.747800000000     0.932320000000     0.508322   
Cd16     Cd     0.738020000000     0.927170000000     0.065670000000     0.508554   
H1       H      0.540300000000     0.330610000000     0.977120000000     0.106782   
H2       H      0.095590000000     0.436410000000     0.100040000000     0.0406518  
H3       H      0.124130000000     0.410850000000     0.113760000000     0.0543659  
H4       H      0.015930000000     0.362540000000     0.034890000000     0.0489784  
H5       H      0.049680000000     0.412490000000     0.063480000000     0.0442268  
H6       H      0.544290000000     0.279500000000     0.023430000000     0.0491611  
H7       H      0.128280000000     0.358290000000     0.079350000000     0.060294   
H8       H      0.094840000000     0.308680000000     0.050200000000     0.0452771  
H9       H      0.507650000000     0.292790000000     0.036740000000     0.0552971  
H10      H      0.130340000000     0.456470000000     0.053140000000     0.105806   
H11      H      0.386370000000     0.131600000000     0.949130000000     0.10678    
H12      H      0.351440000000     0.471230000000     0.993940000000     0.0466523  
H13      H      0.356140000000     0.485100000000     0.036370000000     0.0535828  
H14      H      0.413410000000     0.564700000000     0.933380000000     0.0451504  
H15      H      0.377900000000     0.509660000000     0.950290000000     0.043919   
H16      H      0.446530000000     0.136600000000     0.992060000000     0.0532864  
H17      H      0.369190000000     0.549550000000     0.048450000000     0.0482002  
H18      H      0.404560000000     0.104640000000     0.031480000000     0.0472226  
H19      H      0.452210000000     0.119280000000     0.952450000000     0.0491512  
H20      H      0.306460000000     0.513810000000     0.997360000000     0.107441   
H21      H      0.361940000000     0.301500000000     0.976230000000     0.107862   
H22      H      0.212030000000     0.344900000000     0.973530000000     0.0553299  
H23      H      0.199780000000     0.299960000000     0.982840000000     0.0411813  
H24      H      0.326550000000     0.363330000000     0.939460000000     0.0451701  
H25      H      0.274390000000     0.371830000000     0.964890000000     0.0568633  
H26      H      0.338260000000     0.281660000000     0.907020000000     0.0555294  
H27      H      0.237350000000     0.262890000000     0.971340000000     0.0447313  
H28      H      0.289380000000     0.254430000000     0.945670000000     0.0488278  
H29      H      0.357200000000     0.325740000000     0.911760000000     0.0489283  
H30      H      0.227350000000     0.308990000000     0.036420000000     0.105589   
H31      H      0.475260000000     0.233400000000     0.677380000000     0.107695   
H32      H      0.505960000000     0.204980000000     0.837110000000     0.0529037  
H33      H      0.534520000000     0.245900000000     0.835720000000     0.0496717  
H34      H      0.491720000000     0.170720000000     0.725260000000     0.0483509  
H35      H      0.485980000000     0.175330000000     0.785650000000     0.0463553  
H36      H      0.544650000000     0.239680000000     0.672340000000     0.0474423  
H37      H      0.541490000000     0.279940000000     0.781810000000     0.0458807  
H38      H      0.547050000000     0.275380000000     0.721370000000     0.0443825  
H39      H      0.530170000000     0.194740000000     0.675880000000     0.0538729  
H40      H      0.473150000000     0.260490000000     0.815780000000     0.107407   
H41      H      0.299540000000     0.420940000000     0.315470000000     0.107709   
H42      H      0.247160000000     0.486760000000     0.174650000000     0.0546775  
H43      H      0.292160000000     0.499880000000     0.173300000000     0.0472998  
H44      H      0.221300000000     0.436110000000     0.281550000000     0.046379   
H45      H      0.220740000000     0.443810000000     0.221100000000     0.0490317  
H46      H      0.287070000000     0.484620000000     0.337040000000     0.0500771  
H47      H      0.322870000000     0.503020000000     0.224850000000     0.0442627  
H48      H      0.323340000000     0.495490000000     0.285320000000     0.046024   
H49      H      0.246660000000     0.456700000000     0.335290000000     0.0518708  
H50      H      0.283680000000     0.429780000000     0.176200000000     0.107562   
H51      H      0.171920000000     0.335540000000     0.447310000000     0.106781   
H52      H      0.527750000000     0.305490000000     0.535780000000     0.0536419  
H53      H      0.513940000000     0.300100000000     0.493430000000     0.0467109  
H54      H      0.145800000000     0.353990000000     0.530280000000     0.0473228  
H55      H      0.591520000000     0.318260000000     0.547600000000     0.0482553  
H56      H      0.159770000000     0.402010000000     0.451070000000     0.0489268  
H57      H      0.551640000000     0.326680000000     0.449590000000     0.043909   
H58      H      0.105880000000     0.362560000000     0.432330000000     0.0450896  
H59      H      0.177070000000     0.396450000000     0.490630000000     0.0535394  
H60      H      0.555750000000     0.254380000000     0.497530000000     0.107529   
H61      H      0.369410000000     0.490500000000     0.476770000000     0.106684   
H62      H      0.451080000000     0.070640000000     0.614850000000     0.054312   
H63      H      0.474750000000     0.040500000000     0.600610000000     0.0406266  
H64      H      0.349890000000     0.545900000000     0.551680000000     0.045058   
H65      H      0.399640000000     0.077330000000     0.581410000000     0.0605632  
H66      H      0.330570000000     0.458400000000     0.536280000000     0.0555753  
H67      H      0.449770000000     0.495620000000     0.562650000000     0.044372   
H68      H      0.399660000000     0.463830000000     0.533510000000     0.0492461  
H69      H      0.319860000000     0.496720000000     0.522670000000     0.0487256  
H70      H      0.496250000000     0.076010000000     0.554500000000     0.105853   
H71      H      0.353680000000     0.177800000000     0.538840000000     0.105639   
H72      H      0.365790000000     0.307480000000     0.414960000000     0.0496565  
H73      H      0.322590000000     0.286260000000     0.408970000000     0.0555461  
H74      H      0.413540000000     0.224260000000     0.466180000000     0.056127   
H75      H      0.403660000000     0.276580000000     0.440840000000     0.0452393  
H76      H      0.344220000000     0.147830000000     0.485790000000     0.0409795  
H77      H      0.296590000000     0.236980000000     0.448920000000     0.0488096  
H78      H      0.306460000000     0.184800000000     0.474480000000     0.0445536  
H79      H      0.387970000000     0.160620000000     0.475600000000     0.0550808  
H80      H      0.337890000000     0.309500000000     0.478580000000     0.107664   
H81      H      0.540300000000     0.830610000000     0.977120000000     0.106784   
H82      H      0.095590000000     0.936410000000     0.100040000000     0.040657   
H83      H      0.124130000000     0.910850000000     0.113760000000     0.0543776  
H84      H      0.015930000000     0.862540000000     0.034890000000     0.0489732  
H85      H      0.049680000000     0.912490000000     0.063480000000     0.0442311  
H86      H      0.544290000000     0.779500000000     0.023430000000     0.0491659  
H87      H      0.128280000000     0.858290000000     0.079350000000     0.0602935  
H88      H      0.094840000000     0.808680000000     0.050200000000     0.0452762  
H89      H      0.507650000000     0.792800000000     0.036740000000     0.0552998  
H90      H      0.130340000000     0.956470000000     0.053140000000     0.105807   
H91      H      0.386370000000     0.631600000000     0.949130000000     0.10678    
H92      H      0.351440000000     0.971230000000     0.993940000000     0.0466525  
H93      H      0.356140000000     0.985100000000     0.036370000000     0.0535833  
H94      H      0.413410000000     0.064700000000     0.933380000000     0.0451497  
H95      H      0.377900000000     0.009660000000     0.950290000000     0.043913   
H96      H      0.446530000000     0.636600000000     0.992060000000     0.0532873  
H97      H      0.369190000000     0.049550000000     0.048450000000     0.0481948  
H98      H      0.404560000000     0.604640000000     0.031480000000     0.0472231  
H99      H      0.452210000000     0.619280000000     0.952450000000     0.049152   
H100     H      0.306460000000     0.013810000000     0.997360000000     0.10743    
H101     H      0.361940000000     0.801500000000     0.976230000000     0.107855   
H102     H      0.212030000000     0.844900000000     0.973530000000     0.0553308  
H103     H      0.199780000000     0.799960000000     0.982840000000     0.0411821  
H104     H      0.326550000000     0.863330000000     0.939460000000     0.0451696  
H105     H      0.274390000000     0.871830000000     0.964890000000     0.0568644  
H106     H      0.338260000000     0.781650000000     0.907020000000     0.0555293  
H107     H      0.237350000000     0.762890000000     0.971340000000     0.0447325  
H108     H      0.289380000000     0.754430000000     0.945670000000     0.0488285  
H109     H      0.357200000000     0.825740000000     0.911760000000     0.0489234  
H110     H      0.227350000000     0.808990000000     0.036420000000     0.105589   
H111     H      0.475260000000     0.733400000000     0.677380000000     0.107695   
H112     H      0.505960000000     0.704980000000     0.837110000000     0.0528799  
H113     H      0.534520000000     0.745900000000     0.835720000000     0.049657   
H114     H      0.491720000000     0.670720000000     0.725260000000     0.0483493  
H115     H      0.485980000000     0.675340000000     0.785650000000     0.0463725  
H116     H      0.544650000000     0.739680000000     0.672340000000     0.0474373  
H117     H      0.541500000000     0.779940000000     0.781810000000     0.0458786  
H118     H      0.547050000000     0.775390000000     0.721370000000     0.0443635  
H119     H      0.530170000000     0.694740000000     0.675880000000     0.0538733  
H120     H      0.473150000000     0.760490000000     0.815780000000     0.107406   
H121     H      0.299540000000     0.920940000000     0.315470000000     0.10771    
H122     H      0.247160000000     0.986760000000     0.174650000000     0.0546806  
H123     H      0.292160000000     0.999880000000     0.173300000000     0.0473048  
H124     H      0.221300000000     0.936110000000     0.281550000000     0.0463848  
H125     H      0.220730000000     0.943810000000     0.221100000000     0.0490088  
H126     H      0.287070000000     0.984630000000     0.337040000000     0.0500608  
H127     H      0.322870000000     0.003020000000     0.224850000000     0.0442416  
H128     H      0.323340000000     0.995490000000     0.285320000000     0.0460362  
H129     H      0.246660000000     0.956700000000     0.335290000000     0.0518641  
H130     H      0.283680000000     0.929780000000     0.176200000000     0.10756    
H131     H      0.171920000000     0.835540000000     0.447310000000     0.106785   
H132     H      0.527740000000     0.805490000000     0.535780000000     0.0536419  
H133     H      0.513940000000     0.800100000000     0.493430000000     0.0467088  
H134     H      0.145800000000     0.854000000000     0.530280000000     0.0473179  
H135     H      0.591520000000     0.818270000000     0.547600000000     0.0482652  
H136     H      0.159770000000     0.902010000000     0.451070000000     0.0489252  
H137     H      0.551640000000     0.826680000000     0.449590000000     0.0439107  
H138     H      0.105880000000     0.862560000000     0.432330000000     0.0450889  
H139     H      0.177070000000     0.896450000000     0.490630000000     0.053536   
H140     H      0.555750000000     0.754380000000     0.497530000000     0.107528   
H141     H      0.369410000000     0.990500000000     0.476770000000     0.106684   
H142     H      0.451080000000     0.570640000000     0.614850000000     0.0543122  
H143     H      0.474750000000     0.540500000000     0.600610000000     0.0406279  
H144     H      0.349890000000     0.045900000000     0.551680000000     0.0450492  
H145     H      0.399640000000     0.577330000000     0.581410000000     0.0605597  
H146     H      0.330570000000     0.958400000000     0.536280000000     0.0555721  
H147     H      0.449770000000     0.995620000000     0.562650000000     0.0443968  
H148     H      0.399660000000     0.963830000000     0.533510000000     0.0492323  
H149     H      0.319860000000     0.996720000000     0.522670000000     0.0487279  
H150     H      0.496250000000     0.576010000000     0.554500000000     0.105856   
H151     H      0.353680000000     0.677800000000     0.538840000000     0.10564    
H152     H      0.365790000000     0.807470000000     0.414960000000     0.0496811  
H153     H      0.322590000000     0.786260000000     0.408970000000     0.0555733  
H154     H      0.413540000000     0.724260000000     0.466180000000     0.0561292  
H155     H      0.403660000000     0.776590000000     0.440840000000     0.0452293  
H156     H      0.344220000000     0.647830000000     0.485790000000     0.0409806  
H157     H      0.296590000000     0.736980000000     0.448920000000     0.0488132  
H158     H      0.306460000000     0.684800000000     0.474480000000     0.0445531  
H159     H      0.387970000000     0.660620000000     0.475600000000     0.0550817  
H160     H      0.337890000000     0.809500000000     0.478580000000     0.107667   
H161     H      0.040300000000     0.330610000000     0.977120000000     0.106775   
H162     H      0.595590000000     0.436410000000     0.100040000000     0.0406552  
H163     H      0.624130000000     0.410850000000     0.113760000000     0.0543678  
H164     H      0.515930000000     0.362540000000     0.034890000000     0.0489849  
H165     H      0.549680000000     0.412490000000     0.063480000000     0.0442314  
H166     H      0.044290000000     0.279500000000     0.023430000000     0.0491565  
H167     H      0.628280000000     0.358290000000     0.079350000000     0.060295   
H168     H      0.594840000000     0.308680000000     0.050200000000     0.0452792  
H169     H      0.007650000000     0.292790000000     0.036740000000     0.0552889  
H170     H      0.630340000000     0.456470000000     0.053140000000     0.105808   
H171     H      0.886370000000     0.131600000000     0.949130000000     0.106779   
H172     H      0.851440000000     0.471230000000     0.993940000000     0.0466539  
H173     H      0.856140000000     0.485100000000     0.036370000000     0.0535848  
H174     H      0.913410000000     0.564700000000     0.933380000000     0.0451532  
H175     H      0.877900000000     0.509660000000     0.950290000000     0.0439207  
H176     H      0.946530000000     0.136600000000     0.992060000000     0.0533014  
H177     H      0.869190000000     0.549550000000     0.048450000000     0.0482017  
H178     H      0.904560000000     0.104640000000     0.031480000000     0.0472274  
H179     H      0.952200000000     0.119280000000     0.952450000000     0.049175   
H180     H      0.806460000000     0.513810000000     0.997360000000     0.107442   
H181     H      0.861940000000     0.301500000000     0.976230000000     0.107864   
H182     H      0.712030000000     0.344900000000     0.973530000000     0.0553309  
H183     H      0.699780000000     0.299960000000     0.982840000000     0.0411828  
H184     H      0.826550000000     0.363330000000     0.939460000000     0.0451715  
H185     H      0.774390000000     0.371830000000     0.964890000000     0.0568639  
H186     H      0.838260000000     0.281660000000     0.907020000000     0.0555304  
H187     H      0.737350000000     0.262890000000     0.971340000000     0.0447325  
H188     H      0.789380000000     0.254430000000     0.945670000000     0.0488286  
H189     H      0.857200000000     0.325740000000     0.911760000000     0.0489302  
H190     H      0.727350000000     0.308990000000     0.036420000000     0.10559    
H191     H      0.975260000000     0.233400000000     0.677380000000     0.107702   
H192     H      0.005960000000     0.204980000000     0.837110000000     0.0528881  
H193     H      0.034520000000     0.245900000000     0.835720000000     0.049663   
H194     H      0.991720000000     0.170720000000     0.725260000000     0.0484021  
H195     H      0.985980000000     0.175330000000     0.785650000000     0.0463341  
H196     H      0.044650000000     0.239680000000     0.672340000000     0.0474458  
H197     H      0.041500000000     0.279940000000     0.781810000000     0.0458591  
H198     H      0.047050000000     0.275380000000     0.721370000000     0.0443891  
H199     H      0.030170000000     0.194740000000     0.675880000000     0.053874   
H200     H      0.973150000000     0.260490000000     0.815780000000     0.107416   
H201     H      0.799540000000     0.420940000000     0.315470000000     0.10771    
H202     H      0.747160000000     0.486760000000     0.174650000000     0.0546784  
H203     H      0.792160000000     0.499880000000     0.173300000000     0.0473011  
H204     H      0.721300000000     0.436110000000     0.281550000000     0.0463804  
H205     H      0.720740000000     0.443810000000     0.221100000000     0.0490329  
H206     H      0.787070000000     0.484620000000     0.337040000000     0.0500783  
H207     H      0.822870000000     0.503020000000     0.224850000000     0.0442647  
H208     H      0.823340000000     0.495490000000     0.285320000000     0.0460259  
H209     H      0.746660000000     0.456700000000     0.335290000000     0.0518717  
H210     H      0.783680000000     0.429780000000     0.176200000000     0.107563   
H211     H      0.671920000000     0.335540000000     0.447310000000     0.106782   
H212     H      0.027750000000     0.305490000000     0.535780000000     0.0536341  
H213     H      0.013940000000     0.300100000000     0.493430000000     0.0467026  
H214     H      0.645800000000     0.353990000000     0.530280000000     0.0473239  
H215     H      0.091520000000     0.318260000000     0.547600000000     0.0482526  
H216     H      0.659770000000     0.402010000000     0.451070000000     0.0489284  
H217     H      0.051640000000     0.326680000000     0.449590000000     0.0439038  
H218     H      0.605880000000     0.362560000000     0.432330000000     0.0450921  
H219     H      0.677070000000     0.396450000000     0.490630000000     0.0535405  
H220     H      0.055750000000     0.254380000000     0.497530000000     0.107526   
H221     H      0.869410000000     0.490500000000     0.476770000000     0.106686   
H222     H      0.951080000000     0.070640000000     0.614850000000     0.0543151  
H223     H      0.974750000000     0.040500000000     0.600610000000     0.0406317  
H224     H      0.849890000000     0.545900000000     0.551680000000     0.0450586  
H225     H      0.899640000000     0.077330000000     0.581410000000     0.0605639  
H226     H      0.830570000000     0.458400000000     0.536280000000     0.0555761  
H227     H      0.949770000000     0.495620000000     0.562650000000     0.0443762  
H228     H      0.899660000000     0.463830000000     0.533510000000     0.0492482  
H229     H      0.819860000000     0.496720000000     0.522670000000     0.0487262  
H230     H      0.996250000000     0.076010000000     0.554500000000     0.105859   
H231     H      0.853680000000     0.177800000000     0.538840000000     0.10564    
H232     H      0.865790000000     0.307480000000     0.414960000000     0.049659   
H233     H      0.822590000000     0.286260000000     0.408970000000     0.0555473  
H234     H      0.913540000000     0.224260000000     0.466180000000     0.0561308  
H235     H      0.903660000000     0.276580000000     0.440840000000     0.0452433  
H236     H      0.844220000000     0.147830000000     0.485790000000     0.0409805  
H237     H      0.796590000000     0.236980000000     0.448920000000     0.0488105  
H238     H      0.806460000000     0.184800000000     0.474480000000     0.0445545  
H239     H      0.887970000000     0.160620000000     0.475600000000     0.0550829  
H240     H      0.837890000000     0.309500000000     0.478580000000     0.107666   
H241     H      0.040300000000     0.830610000000     0.977120000000     0.106776   
H242     H      0.595590000000     0.936410000000     0.100040000000     0.0406663  
H243     H      0.624130000000     0.910850000000     0.113760000000     0.0543904  
H244     H      0.515930000000     0.862540000000     0.034890000000     0.0489827  
H245     H      0.549680000000     0.912490000000     0.063480000000     0.0442241  
H246     H      0.044290000000     0.779500000000     0.023430000000     0.0491608  
H247     H      0.628280000000     0.858290000000     0.079350000000     0.0602987  
H248     H      0.594840000000     0.808680000000     0.050200000000     0.0452789  
H249     H      0.007650000000     0.792800000000     0.036740000000     0.0552911  
H250     H      0.630340000000     0.956470000000     0.053140000000     0.105799   
H251     H      0.886370000000     0.631600000000     0.949130000000     0.106781   
H252     H      0.851440000000     0.971230000000     0.993940000000     0.0466536  
H253     H      0.856140000000     0.985100000000     0.036370000000     0.0535847  
H254     H      0.913410000000     0.064700000000     0.933380000000     0.045154   
H255     H      0.877900000000     0.009660000000     0.950290000000     0.0439137  
H256     H      0.946530000000     0.636600000000     0.992060000000     0.0532916  
H257     H      0.869190000000     0.049550000000     0.048450000000     0.0481954  
H258     H      0.904560000000     0.604640000000     0.031480000000     0.0472257  
H259     H      0.952210000000     0.619280000000     0.952450000000     0.0491568  
H260     H      0.806460000000     0.013810000000     0.997360000000     0.107431   
H261     H      0.861940000000     0.801500000000     0.976230000000     0.107857   
H262     H      0.712030000000     0.844900000000     0.973530000000     0.0553323  
H263     H      0.699780000000     0.799960000000     0.982840000000     0.0411844  
H264     H      0.826550000000     0.863330000000     0.939460000000     0.0451659  
H265     H      0.774390000000     0.871830000000     0.964890000000     0.0568661  
H266     H      0.838260000000     0.781650000000     0.907020000000     0.0555147  
H267     H      0.737350000000     0.762890000000     0.971340000000     0.0447356  
H268     H      0.789380000000     0.754430000000     0.945670000000     0.0488244  
H269     H      0.857190000000     0.825740000000     0.911760000000     0.0489087  
H270     H      0.727350000000     0.808990000000     0.036420000000     0.105591   
H271     H      0.975260000000     0.733400000000     0.677380000000     0.107701   
H272     H      0.005960000000     0.704980000000     0.837110000000     0.052865   
H273     H      0.034520000000     0.745900000000     0.835720000000     0.0496492  
H274     H      0.991720000000     0.670720000000     0.725260000000     0.0483998  
H275     H      0.985980000000     0.675340000000     0.785650000000     0.0463521  
H276     H      0.044650000000     0.739680000000     0.672340000000     0.0474406  
H277     H      0.041500000000     0.779940000000     0.781810000000     0.045864   
H278     H      0.047050000000     0.775390000000     0.721370000000     0.0443685  
H279     H      0.030170000000     0.694740000000     0.675880000000     0.0538741  
H280     H      0.973150000000     0.760490000000     0.815780000000     0.107414   
H281     H      0.799540000000     0.920940000000     0.315470000000     0.107711   
H282     H      0.747160000000     0.986760000000     0.174650000000     0.0546818  
H283     H      0.792160000000     0.999880000000     0.173300000000     0.047306   
H284     H      0.721300000000     0.936110000000     0.281550000000     0.0463864  
H285     H      0.720730000000     0.943810000000     0.221100000000     0.0490103  
H286     H      0.787070000000     0.984630000000     0.337040000000     0.0500619  
H287     H      0.822870000000     0.003020000000     0.224850000000     0.0442435  
H288     H      0.823340000000     0.995490000000     0.285320000000     0.0460379  
H289     H      0.746660000000     0.956700000000     0.335290000000     0.0518657  
H290     H      0.783680000000     0.929780000000     0.176200000000     0.107561   
H291     H      0.671920000000     0.835540000000     0.447310000000     0.106786   
H292     H      0.027750000000     0.805490000000     0.535780000000     0.0536403  
H293     H      0.013940000000     0.800100000000     0.493430000000     0.0467071  
H294     H      0.645800000000     0.854000000000     0.530280000000     0.0473194  
H295     H      0.091520000000     0.818270000000     0.547600000000     0.048262   
H296     H      0.659770000000     0.902010000000     0.451070000000     0.0489274  
H297     H      0.051640000000     0.826680000000     0.449590000000     0.0439063  
H298     H      0.605880000000     0.862560000000     0.432330000000     0.0450919  
H299     H      0.677070000000     0.896450000000     0.490630000000     0.0535372  
H300     H      0.055750000000     0.754380000000     0.497530000000     0.107524   
H301     H      0.869410000000     0.990500000000     0.476770000000     0.106686   
H302     H      0.951080000000     0.570640000000     0.614850000000     0.0543152  
H303     H      0.974750000000     0.540500000000     0.600610000000     0.040633   
H304     H      0.849890000000     0.045900000000     0.551680000000     0.0450499  
H305     H      0.899640000000     0.577330000000     0.581410000000     0.0605604  
H306     H      0.830570000000     0.958400000000     0.536280000000     0.0555733  
H307     H      0.949770000000     0.995620000000     0.562650000000     0.044401   
H308     H      0.899660000000     0.963830000000     0.533510000000     0.0492349  
H309     H      0.819860000000     0.996720000000     0.522670000000     0.0487288  
H310     H      0.996250000000     0.576010000000     0.554500000000     0.105862   
H311     H      0.853680000000     0.677800000000     0.538840000000     0.105641   
H312     H      0.865790000000     0.807470000000     0.414960000000     0.0496833  
H313     H      0.822590000000     0.786260000000     0.408970000000     0.0555743  
H314     H      0.913540000000     0.724260000000     0.466180000000     0.056129   
H315     H      0.903650000000     0.776590000000     0.440840000000     0.0452515  
H316     H      0.844220000000     0.647830000000     0.485790000000     0.0409809  
H317     H      0.796590000000     0.736980000000     0.448920000000     0.0488154  
H318     H      0.806460000000     0.684800000000     0.474480000000     0.0445523  
H319     H      0.887970000000     0.660620000000     0.475600000000     0.055083   
H320     H      0.837890000000     0.809500000000     0.478580000000     0.107675   
N1       N      0.525260000000     0.309160000000     0.988510000000    -0.199013   
N2       N      0.137490000000     0.438860000000     0.069070000000    -0.198401   
N3       N      0.411240000000     0.143100000000     0.955330000000    -0.199117   
N4       N      0.313570000000     0.494660000000     0.011290000000    -0.198999   
N5       N      0.365910000000     0.295000000000     0.951640000000    -0.198409   
N6       N      0.226200000000     0.329740000000     0.021220000000    -0.198598   
N7       N      0.492500000000     0.222030000000     0.665100000000    -0.198808   
N8       N      0.483460000000     0.247410000000     0.834030000000    -0.198448   
N9       N      0.287650000000     0.432460000000     0.333760000000    -0.198501   
N10      N      0.272840000000     0.447700000000     0.164180000000    -0.198844   
N11      N      0.183390000000     0.360590000000     0.453930000000    -0.199057   
N12      N      0.536970000000     0.261890000000     0.511370000000    -0.199006   
N13      N      0.348070000000     0.475580000000     0.488170000000    -0.199116   
N14      N      0.479080000000     0.083750000000     0.570310000000    -0.198462   
N15      N      0.373830000000     0.175800000000     0.523530000000    -0.198706   
N16      N      0.333220000000     0.314150000000     0.453660000000    -0.198357   
N17      N      0.525260000000     0.809160000000     0.988510000000    -0.199012   
N18      N      0.137490000000     0.938860000000     0.069070000000    -0.198397   
N19      N      0.411240000000     0.643100000000     0.955330000000    -0.199117   
N20      N      0.313570000000     0.994660000000     0.011290000000    -0.198991   
N21      N      0.365910000000     0.794990000000     0.951640000000    -0.198441   
N22      N      0.226200000000     0.829740000000     0.021220000000    -0.198598   
N23      N      0.492500000000     0.722030000000     0.665100000000    -0.198823   
N24      N      0.483460000000     0.747410000000     0.834030000000    -0.198438   
N25      N      0.287650000000     0.932460000000     0.333760000000    -0.198504   
N26      N      0.272840000000     0.947700000000     0.164180000000    -0.198815   
N27      N      0.183390000000     0.860590000000     0.453930000000    -0.199087   
N28      N      0.536970000000     0.761890000000     0.511370000000    -0.198988   
N29      N      0.348070000000     0.975580000000     0.488170000000    -0.199074   
N30      N      0.479080000000     0.583750000000     0.570310000000    -0.198463   
N31      N      0.373830000000     0.675800000000     0.523530000000    -0.198705   
N32      N      0.333220000000     0.814160000000     0.453660000000    -0.198396   
N33      N      0.025260000000     0.309160000000     0.988510000000    -0.199003   
N34      N      0.637490000000     0.438860000000     0.069070000000    -0.198401   
N35      N      0.911240000000     0.143100000000     0.955330000000    -0.199111   
N36      N      0.813570000000     0.494660000000     0.011290000000    -0.198999   
N37      N      0.865910000000     0.295000000000     0.951640000000    -0.198408   
N38      N      0.726200000000     0.329740000000     0.021220000000    -0.198598   
N39      N      0.992500000000     0.222030000000     0.665100000000    -0.198796   
N40      N      0.983460000000     0.247410000000     0.834030000000    -0.198437   
N41      N      0.787650000000     0.432460000000     0.333760000000    -0.1985     
N42      N      0.772840000000     0.447700000000     0.164180000000    -0.198844   
N43      N      0.683390000000     0.360590000000     0.453930000000    -0.199057   
N44      N      0.036970000000     0.261890000000     0.511370000000    -0.199003   
N45      N      0.848070000000     0.475580000000     0.488170000000    -0.199115   
N46      N      0.979080000000     0.083750000000     0.570310000000    -0.198461   
N47      N      0.873830000000     0.175800000000     0.523530000000    -0.198705   
N48      N      0.833220000000     0.314150000000     0.453660000000    -0.198356   
N49      N      0.025260000000     0.809160000000     0.988510000000    -0.199002   
N50      N      0.637500000000     0.938860000000     0.069070000000    -0.198441   
N51      N      0.911240000000     0.643100000000     0.955330000000    -0.199116   
N52      N      0.813570000000     0.994660000000     0.011290000000    -0.198991   
N53      N      0.865910000000     0.794990000000     0.951640000000    -0.198447   
N54      N      0.726200000000     0.829740000000     0.021220000000    -0.198603   
N55      N      0.992500000000     0.722030000000     0.665100000000    -0.198811   
N56      N      0.983460000000     0.747410000000     0.834030000000    -0.198426   
N57      N      0.787650000000     0.932460000000     0.333760000000    -0.198504   
N58      N      0.772840000000     0.947700000000     0.164180000000    -0.198815   
N59      N      0.683390000000     0.860590000000     0.453930000000    -0.199086   
N60      N      0.036970000000     0.761890000000     0.511370000000    -0.198983   
N61      N      0.848070000000     0.975580000000     0.488170000000    -0.199074   
N62      N      0.979080000000     0.583750000000     0.570310000000    -0.198461   
N63      N      0.873830000000     0.675800000000     0.523530000000    -0.198705   
N64      N      0.833220000000     0.814160000000     0.453660000000    -0.198409   
O1       O      0.301160000000     0.396620000000     0.372740000000    -0.245521   
O2       O      0.301590000000     0.431870000000     0.482060000000    -0.248405   
O3       O      0.312740000000     0.348110000000     0.417050000000    -0.244443   
O4       O      0.233300000000     0.353110000000     0.433360000000    -0.256504   
O5       O      0.232150000000     0.402100000000     0.454090000000    -0.250014   
O6       O      0.310090000000     0.358250000000     0.469410000000    -0.253751   
O7       O      0.273630000000     0.433580000000     0.388760000000    -0.254244   
O8       O      0.335940000000     0.443940000000     0.440900000000    -0.255657   
O9       O      0.458540000000     0.213360000000     0.619380000000    -0.24616    
O10      O      0.518240000000     0.207210000000     0.529480000000    -0.245989   
O11      O      0.409520000000     0.185410000000     0.567880000000    -0.24805    
O12      O      0.455930000000     0.127630000000     0.587680000000    -0.259827   
O13      O      0.494040000000     0.137900000000     0.549720000000    -0.245801   
O14      O      0.430260000000     0.177320000000     0.520210000000    -0.259025   
O15      O      0.505450000000     0.197340000000     0.617050000000    -0.256033   
O16      O      0.491520000000     0.244750000000     0.545730000000    -0.256411   
O17      O      0.398700000000     0.272050000000     0.916040000000    -0.244634   
O18      O      0.481670000000     0.262490000000     0.982320000000    -0.248306   
O19      O      0.448890000000     0.262830000000     0.872830000000    -0.245896   
O20      O      0.404050000000     0.193590000000     0.934370000000    -0.256512   
O21      O      0.452540000000     0.192230000000     0.954580000000    -0.24993    
O22      O      0.483190000000     0.232490000000     0.888930000000    -0.254556   
O23      O      0.410270000000     0.273330000000     0.968290000000    -0.253838   
O24      O      0.494460000000     0.296920000000     0.940960000000    -0.255501   
O25      O      0.235420000000     0.365290000000     0.066060000000    -0.248211   
O26      O      0.259320000000     0.475890000000     0.028610000000    -0.245971   
O27      O      0.263960000000     0.414010000000     0.117970000000    -0.246096   
O28      O      0.179910000000     0.414120000000     0.086460000000    -0.259711   
O29      O      0.190910000000     0.452430000000     0.048270000000    -0.245791   
O30      O      0.249130000000     0.462080000000     0.116250000000    -0.255998   
O31      O      0.229070000000     0.387230000000     0.018440000000    -0.259318   
O32      O      0.295910000000     0.448480000000     0.045340000000    -0.256302   
O33      O      0.301160000000     0.896620000000     0.372740000000    -0.245519   
O34      O      0.301590000000     0.931860000000     0.482060000000    -0.248406   
O35      O      0.312740000000     0.848110000000     0.417050000000    -0.244468   
O36      O      0.233300000000     0.853120000000     0.433360000000    -0.256607   
O37      O      0.232150000000     0.902100000000     0.454090000000    -0.250043   
O38      O      0.310090000000     0.858250000000     0.469410000000    -0.253774   
O39      O      0.273630000000     0.933580000000     0.388760000000    -0.25424    
O40      O      0.335940000000     0.943940000000     0.440900000000    -0.255672   
O41      O      0.458540000000     0.713360000000     0.619380000000    -0.246178   
O42      O      0.518240000000     0.707210000000     0.529480000000    -0.245978   
O43      O      0.409520000000     0.685410000000     0.567880000000    -0.248048   
O44      O      0.455930000000     0.627630000000     0.587680000000    -0.259822   
O45      O      0.494040000000     0.637900000000     0.549720000000    -0.245801   
O46      O      0.430260000000     0.677320000000     0.520210000000    -0.259026   
O47      O      0.505450000000     0.697340000000     0.617050000000    -0.255973   
O48      O      0.491520000000     0.744760000000     0.545730000000    -0.256354   
O49      O      0.398700000000     0.772050000000     0.916040000000    -0.244655   
O50      O      0.481670000000     0.762490000000     0.982320000000    -0.248303   
O51      O      0.448890000000     0.762830000000     0.872830000000    -0.245878   
O52      O      0.404050000000     0.693590000000     0.934370000000    -0.256513   
O53      O      0.452540000000     0.692230000000     0.954580000000    -0.249932   
O54      O      0.483200000000     0.732490000000     0.888930000000    -0.254485   
O55      O      0.410270000000     0.773330000000     0.968290000000    -0.253854   
O56      O      0.494460000000     0.796920000000     0.940960000000    -0.2555     
O57      O      0.235420000000     0.865290000000     0.066060000000    -0.248211   
O58      O      0.259320000000     0.975890000000     0.028610000000    -0.245967   
O59      O      0.263960000000     0.914010000000     0.117970000000    -0.246064   
O60      O      0.179910000000     0.914120000000     0.086460000000    -0.259714   
O61      O      0.190910000000     0.952430000000     0.048270000000    -0.245789   
O62      O      0.249130000000     0.962090000000     0.116250000000    -0.255891   
O63      O      0.229070000000     0.887230000000     0.018440000000    -0.259316   
O64      O      0.295910000000     0.948480000000     0.045340000000    -0.256302   
O65      O      0.801160000000     0.396620000000     0.372740000000    -0.24552    
O66      O      0.801590000000     0.431870000000     0.482060000000    -0.248404   
O67      O      0.812740000000     0.348110000000     0.417050000000    -0.244441   
O68      O      0.733300000000     0.353110000000     0.433360000000    -0.256503   
O69      O      0.732150000000     0.402100000000     0.454090000000    -0.250013   
O70      O      0.810090000000     0.358250000000     0.469410000000    -0.25375    
O71      O      0.773630000000     0.433580000000     0.388760000000    -0.254244   
O72      O      0.835940000000     0.443940000000     0.440900000000    -0.255656   
O73      O      0.958540000000     0.213360000000     0.619380000000    -0.246165   
O74      O      0.018240000000     0.207210000000     0.529480000000    -0.245997   
O75      O      0.909520000000     0.185410000000     0.567880000000    -0.248049   
O76      O      0.955930000000     0.127630000000     0.587680000000    -0.259824   
O77      O      0.994040000000     0.137900000000     0.549720000000    -0.24579    
O78      O      0.930260000000     0.177320000000     0.520210000000    -0.259021   
O79      O      0.005450000000     0.197340000000     0.617050000000    -0.256073   
O80      O      0.991520000000     0.244750000000     0.545730000000    -0.256376   
O81      O      0.898700000000     0.272050000000     0.916040000000    -0.244633   
O82      O      0.981670000000     0.262490000000     0.982320000000    -0.248263   
O83      O      0.948890000000     0.262830000000     0.872830000000    -0.245893   
O84      O      0.904050000000     0.193590000000     0.934370000000    -0.256511   
O85      O      0.952540000000     0.192230000000     0.954580000000    -0.249925   
O86      O      0.983190000000     0.232490000000     0.888930000000    -0.254546   
O87      O      0.910270000000     0.273330000000     0.968290000000    -0.253834   
O88      O      0.994460000000     0.296920000000     0.940960000000    -0.255458   
O89      O      0.735420000000     0.365290000000     0.066060000000    -0.24821    
O90      O      0.759320000000     0.475890000000     0.028610000000    -0.24597    
O91      O      0.763960000000     0.414010000000     0.117970000000    -0.246095   
O92      O      0.679910000000     0.414120000000     0.086460000000    -0.259711   
O93      O      0.690910000000     0.452430000000     0.048270000000    -0.24579    
O94      O      0.749130000000     0.462080000000     0.116250000000    -0.255998   
O95      O      0.729070000000     0.387230000000     0.018440000000    -0.259317   
O96      O      0.795910000000     0.448480000000     0.045340000000    -0.256301   
O97      O      0.801160000000     0.896620000000     0.372740000000    -0.245522   
O98      O      0.801590000000     0.931860000000     0.482060000000    -0.248407   
O99      O      0.812740000000     0.848110000000     0.417050000000    -0.244504   
O100     O      0.733300000000     0.853120000000     0.433360000000    -0.256593   
O101     O      0.732150000000     0.902100000000     0.454090000000    -0.250021   
O102     O      0.810100000000     0.858250000000     0.469410000000    -0.253836   
O103     O      0.773630000000     0.933580000000     0.388760000000    -0.254229   
O104     O      0.835940000000     0.943940000000     0.440900000000    -0.255685   
O105     O      0.958540000000     0.713360000000     0.619380000000    -0.246183   
O106     O      0.018240000000     0.707210000000     0.529480000000    -0.245986   
O107     O      0.909520000000     0.685410000000     0.567880000000    -0.248047   
O108     O      0.955930000000     0.627630000000     0.587680000000    -0.259819   
O109     O      0.994040000000     0.637900000000     0.549720000000    -0.24579    
O110     O      0.930260000000     0.677320000000     0.520210000000    -0.259022   
O111     O      0.005450000000     0.697340000000     0.617050000000    -0.256014   
O112     O      0.991520000000     0.744760000000     0.545730000000    -0.256318   
O113     O      0.898700000000     0.772050000000     0.916040000000    -0.244653   
O114     O      0.981670000000     0.762490000000     0.982320000000    -0.248261   
O115     O      0.948890000000     0.762830000000     0.872830000000    -0.245875   
O116     O      0.904050000000     0.693590000000     0.934370000000    -0.256512   
O117     O      0.952540000000     0.692230000000     0.954580000000    -0.249927   
O118     O      0.983200000000     0.732490000000     0.888930000000    -0.254475   
O119     O      0.910270000000     0.773330000000     0.968290000000    -0.253852   
O120     O      0.994460000000     0.796920000000     0.940960000000    -0.255457   
O121     O      0.735410000000     0.865290000000     0.066060000000    -0.248232   
O122     O      0.759320000000     0.975890000000     0.028610000000    -0.245965   
O123     O      0.763960000000     0.914010000000     0.117970000000    -0.246065   
O124     O      0.679910000000     0.914120000000     0.086460000000    -0.259738   
O125     O      0.690910000000     0.952430000000     0.048270000000    -0.245816   
O126     O      0.749130000000     0.962090000000     0.116250000000    -0.25589    
O127     O      0.729070000000     0.887230000000     0.018440000000    -0.259321   
O128     O      0.795910000000     0.948480000000     0.045340000000    -0.256304   


