data_structure

_audit_creation_method RASPA-1.0
_audit_creation_date 2023-5-23
_audit_author_name 'Poobodin Mano'

_cell_length_a    45.2012
_cell_length_b    45.1141
_cell_length_c    39.7103
_cell_angle_alpha 90.0057
_cell_angle_beta  90.0001
_cell_angle_gamma 103.023
_cell_volume      78894.9

_symmetry_cell_setting          triclinic
_symmetry_space_group_name_Hall 'P 1'
_symmetry_space_group_name_H-M  'P 1'
_symmetry_Int_Tables_number     1

_symmetry_equiv_pos_as_xyz 'x,y,z'

loop_
_atom_site_label
_atom_site_type_symbol
_atom_site_fract_x
_atom_site_fract_y
_atom_site_fract_z
_atom_site_charge
C1       C      0.212830000000     0.304670000000     0.463190000000     0.341373   
C2       C      0.163770000000     0.339140000000     0.371360000000     0.338989   
C3       C      0.114750000000     0.312230000000     0.473070000000     0.343035   
C4       C      0.205650000000     0.402160000000     0.460270000000     0.345895   
C5       C      0.337060000000     0.174170000000     0.538780000000     0.341358   
C6       C      0.387860000000     0.141600000000     0.630360000000     0.338988   
C7       C      0.344930000000     0.076920000000     0.542560000000     0.345785   
C8       C      0.435380000000     0.166930000000     0.528150000000     0.342977   
C9       C      0.393900000000     0.147550000000     0.869000000000     0.340093   
C10      C      0.339470000000     0.177110000000     0.962660000000     0.34156    
C11      C      0.351220000000     0.084250000000     0.959950000000     0.343297   
C12      C      0.439760000000     0.179510000000     0.967940000000     0.342      
C13      C      0.169570000000     0.343410000000     0.132660000000     0.340087   
C14      C      0.225940000000     0.316190000000     0.039280000000     0.34153    
C15      C      0.125420000000     0.313120000000     0.032920000000     0.34195    
C16      C      0.213150000000     0.408670000000     0.042950000000     0.343277   
C17      C      0.468630000000     0.229160000000     0.989950000000    -0.0282804  
C18      C      0.096700000000     0.263580000000     0.010440000000    -0.0281168  
C19      C      0.069880000000     0.303840000000     0.019960000000    -0.0278245  
C20      C      0.048440000000     0.275220000000     0.009470000000     0.0184751  
C21      C      0.063790000000     0.252300000000     0.004040000000     0.0184185  
C22      C      0.048510000000     0.222880000000     0.994440000000    -0.0652528  
C23      C      0.495470000000     0.188930000000     0.980240000000    -0.027802   
C24      C      0.016870000000     0.269950000000     0.005570000000    -0.0651778  
C25      C      0.016930000000     0.217620000000     0.990480000000     0.0186165  
C26      C      0.501560000000     0.240480000000     0.996110000000     0.0185607  
C27      C      0.226720000000     0.450860000000     0.001060000000    -0.028081   
C28      C      0.337460000000     0.042330000000     0.002220000000    -0.0280859  
C29      C      0.306380000000     0.041330000000     0.952140000000    -0.0282902  
C30      C      0.291840000000     0.017040000000     0.975910000000     0.0185605  
C31      C      0.309520000000     0.017580000000     0.004500000000     0.0185124  
C32      C      0.300210000000     0.497140000000     0.031090000000    -0.0650429  
C33      C      0.257760000000     0.451800000000     0.051150000000    -0.0282112  
C34      C      0.263900000000     0.496100000000     0.972280000000    -0.0652169  
C35      C      0.272280000000     0.476180000000     0.027450000000     0.0184643  
C36      C      0.254600000000     0.475660000000     0.998860000000     0.0186647  
C37      C      0.260010000000     0.281200000000     0.050900000000    -0.0279213  
C38      C      0.305910000000     0.212620000000     0.951050000000    -0.0278618  
C39      C      0.314660000000     0.199460000000     0.009010000000    -0.0278576  
C40      C      0.297800000000     0.224010000000     0.007810000000     0.0187651  
C41      C      0.292800000000     0.231510000000     0.974760000000     0.0187415  
C42      C      0.277870000000     0.254670000000     0.966990000000    -0.0656293  
C43      C      0.251210000000     0.294320000000     0.992940000000    -0.0279314  
C44      C      0.288180000000     0.239250000000     0.034960000000    -0.0657015  
C45      C      0.268250000000     0.269910000000     0.994140000000     0.0187576  
C46      C      0.273260000000     0.262420000000     0.027190000000     0.0187741  
C47      C      0.382760000000     0.167240000000     0.684630000000    -0.0280219  
C48      C      0.409890000000     0.127200000000     0.815030000000    -0.0275907  
C49      C      0.387330000000     0.171280000000     0.814000000000    -0.0284296  
C50      C      0.392410000000     0.161460000000     0.779360000000     0.0194291  
C51      C      0.405200000000     0.136270000000     0.779770000000     0.0179133  
C52      C      0.410700000000     0.121880000000     0.749810000000    -0.0646482  
C53      C      0.405120000000     0.123020000000     0.684660000000    -0.0276615  
C54      C      0.384450000000     0.173700000000     0.749220000000    -0.0660634  
C55      C      0.402870000000     0.134260000000     0.719550000000     0.0180015  
C56      C      0.390120000000     0.159490000000     0.719370000000     0.0192498  
C57      C      0.151350000000     0.361710000000     0.186640000000    -0.0275241  
C58      C      0.171020000000     0.315420000000     0.316500000000    -0.0281212  
C59      C      0.148310000000     0.359400000000     0.317110000000    -0.0276004  
C60      C      0.152660000000     0.349890000000     0.281950000000     0.0179373  
C61      C      0.165630000000     0.324820000000     0.281760000000     0.0193109  
C62      C      0.173350000000     0.312260000000     0.251710000000    -0.0660807  
C63      C      0.174410000000     0.317960000000     0.187060000000    -0.0282697  
C64      C      0.146590000000     0.363750000000     0.251860000000    -0.064611   
C65      C      0.167190000000     0.325990000000     0.221730000000     0.0193879  
C66      C      0.154120000000     0.351000000000     0.221680000000     0.0178988  
C67      C      0.463590000000     0.207490000000     0.490310000000    -0.0284594  
C68      C      0.086450000000     0.271510000000     0.510610000000    -0.0284977  
C69      C      0.058500000000     0.293980000000     0.469240000000    -0.028309   
C70      C      0.038790000000     0.266310000000     0.484300000000     0.0186906  
C71      C      0.054770000000     0.253520000000     0.507880000000     0.018556   
C72      C      0.041430000000     0.226550000000     0.524860000000    -0.0651437  
C73      C      0.491610000000     0.185170000000     0.531740000000    -0.0283846  
C74      C      0.008510000000     0.252820000000     0.476390000000    -0.0655914  
C75      C      0.011130000000     0.213110000000     0.517030000000     0.0184204  
C76      C      0.495260000000     0.225580000000     0.493040000000     0.0185177  
C77      C      0.332540000000     0.032360000000     0.503650000000    -0.0280704  
C78      C      0.218150000000     0.446500000000     0.499550000000    -0.0278977  
C79      C      0.252800000000     0.442540000000     0.453860000000    -0.0280993  
C80      C      0.266600000000     0.467750000000     0.476850000000     0.0186833  
C81      C      0.246880000000     0.470040000000     0.502940000000     0.0186649  
C82      C      0.255100000000     0.491810000000     0.528480000000    -0.0651507  
C83      C      0.297920000000     0.036380000000     0.549360000000    -0.0279686  
C84      C      0.295600000000     0.487040000000     0.474800000000    -0.0652493  
C85      C      0.284120000000     0.011090000000     0.526440000000     0.0184837  
C86      C      0.303830000000     0.008790000000     0.500350000000     0.0187944  
C87      C      0.312550000000     0.217620000000     0.548220000000    -0.0275765  
C88      C      0.236940000000     0.260900000000     0.453900000000    -0.0275618  
C89      C      0.247450000000     0.290230000000     0.505650000000    -0.0276563  
C90      C      0.262750000000     0.264460000000     0.505910000000     0.018609   
C91      C      0.256770000000     0.247740000000     0.476400000000     0.0184738  
C92      C      0.268590000000     0.222030000000     0.470730000000    -0.0656026  
C93      C      0.302130000000     0.188320000000     0.496440000000    -0.0276799  
C94      C      0.280840000000     0.256420000000     0.531420000000    -0.0656721  
C95      C      0.286690000000     0.213990000000     0.496230000000     0.0185642  
C96      C      0.292640000000     0.230700000000     0.525750000000     0.0185339  
C97      C      0.212830000000     0.804680000000     0.463190000000     0.341427   
C98      C      0.163770000000     0.839150000000     0.371360000000     0.338988   
C99      C      0.114750000000     0.812240000000     0.473080000000     0.342891   
C100     C      0.205650000000     0.902170000000     0.460280000000     0.34594    
C101     C      0.337060000000     0.674180000000     0.538770000000     0.341236   
C102     C      0.387850000000     0.641600000000     0.630360000000     0.33912    
C103     C      0.344920000000     0.576920000000     0.542550000000     0.345765   
C104     C      0.435380000000     0.666930000000     0.528140000000     0.34295    
C105     C      0.393890000000     0.647550000000     0.868990000000     0.339865   
C106     C      0.339470000000     0.677120000000     0.962660000000     0.341645   
C107     C      0.351210000000     0.584250000000     0.959950000000     0.343247   
C108     C      0.439760000000     0.679510000000     0.967940000000     0.342072   
C109     C      0.169560000000     0.843410000000     0.132660000000     0.340137   
C110     C      0.225930000000     0.816190000000     0.039280000000     0.341813   
C111     C      0.125420000000     0.813120000000     0.032930000000     0.341841   
C112     C      0.213150000000     0.908670000000     0.042960000000     0.343301   
C113     C      0.468630000000     0.729160000000     0.989930000000    -0.0280778  
C114     C      0.096700000000     0.763570000000     0.010450000000    -0.0282329  
C115     C      0.069880000000     0.803840000000     0.019960000000    -0.0278406  
C116     C      0.048440000000     0.775220000000     0.009470000000     0.0184749  
C117     C      0.063790000000     0.752300000000     0.004050000000     0.0184393  
C118     C      0.048510000000     0.722880000000     0.994450000000    -0.0651952  
C119     C      0.495460000000     0.688930000000     0.980250000000    -0.0278429  
C120     C      0.016870000000     0.769960000000     0.005550000000    -0.0651926  
C121     C      0.016930000000     0.717620000000     0.990480000000     0.0185685  
C122     C      0.501560000000     0.740490000000     0.996100000000     0.0184607  
C123     C      0.226720000000     0.950860000000     0.001050000000    -0.0281965  
C124     C      0.337450000000     0.542340000000     0.002220000000    -0.0280498  
C125     C      0.306360000000     0.541340000000     0.952150000000    -0.0282934  
C126     C      0.291820000000     0.517050000000     0.975920000000     0.0186277  
C127     C      0.309510000000     0.517590000000     0.004510000000     0.018524   
C128     C      0.300220000000     0.997130000000     0.031090000000    -0.0650442  
C129     C      0.257760000000     0.951800000000     0.051150000000    -0.0282535  
C130     C      0.263910000000     0.996090000000     0.972270000000    -0.0651578  
C131     C      0.272290000000     0.976180000000     0.027450000000     0.0184879  
C132     C      0.254610000000     0.975650000000     0.998850000000     0.0186935  
C133     C      0.260010000000     0.781210000000     0.050900000000    -0.0278574  
C134     C      0.305910000000     0.712620000000     0.951050000000    -0.0278486  
C135     C      0.314670000000     0.699460000000     0.009010000000    -0.0278109  
C136     C      0.297800000000     0.724020000000     0.007810000000     0.0187362  
C137     C      0.292800000000     0.731520000000     0.974760000000     0.0187533  
C138     C      0.277870000000     0.754670000000     0.966990000000    -0.0656238  
C139     C      0.251200000000     0.794320000000     0.992940000000    -0.0278525  
C140     C      0.288180000000     0.739260000000     0.034960000000    -0.0656922  
C141     C      0.268240000000     0.769910000000     0.994140000000     0.018731   
C142     C      0.273260000000     0.762420000000     0.027190000000     0.0187682  
C143     C      0.382750000000     0.667240000000     0.684630000000    -0.0280839  
C144     C      0.409880000000     0.627200000000     0.815020000000    -0.0275842  
C145     C      0.387330000000     0.671280000000     0.813990000000    -0.0284163  
C146     C      0.392400000000     0.661460000000     0.779350000000     0.0194268  
C147     C      0.405200000000     0.636270000000     0.779770000000     0.0179113  
C148     C      0.410700000000     0.621880000000     0.749810000000    -0.0645989  
C149     C      0.405110000000     0.623020000000     0.684650000000    -0.0276214  
C150     C      0.384450000000     0.673700000000     0.749210000000    -0.066051   
C151     C      0.402870000000     0.634260000000     0.719540000000     0.0179338  
C152     C      0.390120000000     0.659480000000     0.719370000000     0.019296   
C153     C      0.151350000000     0.861720000000     0.186650000000    -0.0276007  
C154     C      0.171020000000     0.815430000000     0.316500000000    -0.0281102  
C155     C      0.148300000000     0.859410000000     0.317110000000    -0.0277899  
C156     C      0.152660000000     0.849900000000     0.281950000000     0.0180601  
C157     C      0.165630000000     0.824820000000     0.281770000000     0.0192404  
C158     C      0.173350000000     0.812270000000     0.251710000000    -0.0659795  
C159     C      0.174410000000     0.817970000000     0.187070000000    -0.0282021  
C160     C      0.146590000000     0.863760000000     0.251860000000    -0.0647373  
C161     C      0.167190000000     0.826000000000     0.221740000000     0.01932    
C162     C      0.154120000000     0.851000000000     0.221680000000     0.0179876  
C163     C      0.463590000000     0.707490000000     0.490310000000    -0.0284765  
C164     C      0.086450000000     0.771510000000     0.510610000000    -0.0284951  
C165     C      0.058500000000     0.793980000000     0.469240000000    -0.028307   
C166     C      0.038790000000     0.766310000000     0.484300000000     0.0186837  
C167     C      0.054760000000     0.753520000000     0.507880000000     0.0185516  
C168     C      0.041420000000     0.726550000000     0.524850000000    -0.0651322  
C169     C      0.491610000000     0.685170000000     0.531740000000    -0.0283548  
C170     C      0.008510000000     0.752820000000     0.476390000000    -0.0655746  
C171     C      0.011130000000     0.713110000000     0.517020000000     0.0184631  
C172     C      0.495260000000     0.725580000000     0.493040000000     0.0185639  
C173     C      0.332530000000     0.532370000000     0.503640000000    -0.0279399  
C174     C      0.218150000000     0.946500000000     0.499560000000    -0.0278111  
C175     C      0.252800000000     0.942540000000     0.453870000000    -0.0280492  
C176     C      0.266610000000     0.967750000000     0.476870000000     0.0186912  
C177     C      0.246890000000     0.970030000000     0.502960000000     0.0186212  
C178     C      0.255110000000     0.991800000000     0.528500000000    -0.0650686  
C179     C      0.297910000000     0.536390000000     0.549340000000    -0.028051   
C180     C      0.295610000000     0.987030000000     0.474810000000    -0.0652234  
C181     C      0.284100000000     0.511110000000     0.526410000000     0.0185774  
C182     C      0.303820000000     0.508800000000     0.500320000000     0.0187832  
C183     C      0.312550000000     0.717630000000     0.548220000000    -0.0275799  
C184     C      0.236940000000     0.760910000000     0.453900000000    -0.0275161  
C185     C      0.247450000000     0.790230000000     0.505650000000    -0.02761    
C186     C      0.262750000000     0.764470000000     0.505910000000     0.018591   
C187     C      0.256770000000     0.747750000000     0.476400000000     0.0184841  
C188     C      0.268590000000     0.722040000000     0.470720000000    -0.065643   
C189     C      0.302130000000     0.688330000000     0.496440000000    -0.0277057  
C190     C      0.280840000000     0.756420000000     0.531420000000    -0.0656717  
C191     C      0.286690000000     0.714000000000     0.496230000000     0.0185785  
C192     C      0.292640000000     0.730710000000     0.525750000000     0.0185488  
C193     C      0.712750000000     0.304720000000     0.463190000000     0.341342   
C194     C      0.663720000000     0.339200000000     0.371350000000     0.339053   
C195     C      0.614680000000     0.312290000000     0.473020000000     0.343246   
C196     C      0.705590000000     0.402240000000     0.460240000000     0.34587    
C197     C      0.836950000000     0.174200000000     0.538810000000     0.341329   
C198     C      0.887740000000     0.141640000000     0.630410000000     0.338955   
C199     C      0.844860000000     0.076980000000     0.542560000000     0.345777   
C200     C      0.935310000000     0.167090000000     0.528280000000     0.342917   
C201     C      0.893830000000     0.147590000000     0.869050000000     0.340046   
C202     C      0.839480000000     0.177190000000     0.962750000000     0.341578   
C203     C      0.851190000000     0.084300000000     0.960020000000     0.343199   
C204     C      0.939780000000     0.179560000000     0.967910000000     0.34184    
C205     C      0.669490000000     0.343430000000     0.132650000000     0.340029   
C206     C      0.725910000000     0.316250000000     0.039320000000     0.341543   
C207     C      0.625390000000     0.313180000000     0.032890000000     0.341979   
C208     C      0.713090000000     0.408720000000     0.042970000000     0.343238   
C209     C      0.968680000000     0.229240000000     0.989750000000    -0.0280796  
C210     C      0.596710000000     0.263650000000     0.010310000000    -0.0282503  
C211     C      0.569820000000     0.303840000000     0.020040000000    -0.0279083  
C212     C      0.548400000000     0.275210000000     0.009560000000     0.0185359  
C213     C      0.563780000000     0.252330000000     0.004020000000     0.0184256  
C214     C      0.548530000000     0.222910000000     0.994390000000    -0.065147   
C215     C      0.995480000000     0.188910000000     0.980210000000    -0.028333   
C216     C      0.516810000000     0.269890000000     0.005750000000    -0.0652812  
C217     C      0.516930000000     0.217590000000     0.990580000000     0.0184154  
C218     C      0.001600000000     0.240550000000     0.995930000000     0.0182762  
C219     C      0.726680000000     0.450920000000     0.001070000000    -0.0281422  
C220     C      0.837400000000     0.042400000000     0.002300000000    -0.0280033  
C221     C      0.806360000000     0.041380000000     0.952190000000    -0.028302   
C222     C      0.791810000000     0.017090000000     0.975950000000     0.0185776  
C223     C      0.809470000000     0.017640000000     0.004570000000     0.0184957  
C224     C      0.800150000000     0.497210000000     0.031160000000    -0.065138   
C225     C      0.757690000000     0.451870000000     0.051190000000    -0.0283272  
C226     C      0.763880000000     0.496150000000     0.972300000000    -0.0652016  
C227     C      0.772220000000     0.476250000000     0.027500000000     0.0185309  
C228     C      0.754560000000     0.475720000000     0.998890000000     0.0186569  
C229     C      0.760010000000     0.281290000000     0.050970000000    -0.0279298  
C230     C      0.805930000000     0.212690000000     0.951140000000    -0.0278369  
C231     C      0.814700000000     0.199550000000     0.009100000000    -0.0277863  
C232     C      0.797820000000     0.224100000000     0.007900000000     0.0186951  
C233     C      0.792820000000     0.231590000000     0.974840000000     0.018788   
C234     C      0.777890000000     0.254740000000     0.967060000000    -0.0656842  
C235     C      0.751210000000     0.294390000000     0.993000000000    -0.027834   
C236     C      0.788200000000     0.239350000000     0.035040000000    -0.0656343  
C237     C      0.768250000000     0.269980000000     0.994210000000     0.0187425  
C238     C      0.773270000000     0.262500000000     0.027270000000     0.0187726  
C239     C      0.882590000000     0.167240000000     0.684690000000    -0.0280979  
C240     C      0.909830000000     0.127250000000     0.815070000000    -0.0276373  
C241     C      0.887190000000     0.171270000000     0.814050000000    -0.0282701  
C242     C      0.892270000000     0.161470000000     0.779410000000     0.019335   
C243     C      0.905110000000     0.136310000000     0.779810000000     0.0179908  
C244     C      0.910630000000     0.121930000000     0.749850000000    -0.0647363  
C245     C      0.905030000000     0.123070000000     0.684690000000    -0.0277347  
C246     C      0.884280000000     0.173690000000     0.749270000000    -0.0659841  
C247     C      0.902770000000     0.134300000000     0.719590000000     0.0180326  
C248     C      0.889970000000     0.159490000000     0.719420000000     0.0192506  
C249     C      0.651280000000     0.361750000000     0.186630000000    -0.0276513  
C250     C      0.670960000000     0.315460000000     0.316490000000    -0.0282712  
C251     C      0.648270000000     0.359460000000     0.317100000000    -0.02759    
C252     C      0.652610000000     0.349940000000     0.281940000000     0.0179536  
C253     C      0.665560000000     0.324860000000     0.281760000000     0.0193355  
C254     C      0.673270000000     0.312290000000     0.251700000000    -0.0660387  
C255     C      0.674310000000     0.317970000000     0.187050000000    -0.0282503  
C256     C      0.646540000000     0.363800000000     0.251850000000    -0.0646688  
C257     C      0.667100000000     0.326010000000     0.221720000000     0.0193568  
C258     C      0.654050000000     0.351030000000     0.221670000000     0.0179672  
C259     C      0.963510000000     0.207810000000     0.490660000000    -0.028642   
C260     C      0.586380000000     0.271600000000     0.510590000000    -0.028518   
C261     C      0.558450000000     0.293870000000     0.469020000000    -0.0282645  
C262     C      0.538790000000     0.266150000000     0.484040000000     0.018545   
C263     C      0.554750000000     0.253470000000     0.507740000000     0.0186479  
C264     C      0.541450000000     0.226490000000     0.524720000000    -0.0652422  
C265     C      0.991540000000     0.185310000000     0.531980000000    -0.0285709  
C266     C      0.508570000000     0.252550000000     0.476030000000    -0.0650979  
C267     C      0.511240000000     0.212880000000     0.516690000000     0.0186648  
C268     C      0.995160000000     0.225880000000     0.493420000000     0.0189478  
C269     C      0.832460000000     0.032440000000     0.503630000000    -0.0278992  
C270     C      0.718070000000     0.446570000000     0.499510000000    -0.0278385  
C271     C      0.752730000000     0.442620000000     0.453830000000    -0.02806    
C272     C      0.766530000000     0.467830000000     0.476820000000     0.0186804  
C273     C      0.746810000000     0.470120000000     0.502910000000     0.018652   
C274     C      0.755030000000     0.491880000000     0.528440000000    -0.0651392  
C275     C      0.797850000000     0.036440000000     0.549340000000    -0.0280354  
C276     C      0.795530000000     0.487120000000     0.474760000000    -0.065245   
C277     C      0.784050000000     0.011160000000     0.526410000000     0.0185464  
C278     C      0.803760000000     0.008860000000     0.500310000000     0.0187308  
C279     C      0.812350000000     0.217580000000     0.548290000000    -0.0275651  
C280     C      0.736910000000     0.260990000000     0.453870000000    -0.0275236  
C281     C      0.747280000000     0.290210000000     0.505710000000    -0.0276701  
C282     C      0.762600000000     0.264460000000     0.505960000000     0.0185889  
C283     C      0.756700000000     0.247800000000     0.476400000000     0.0184827  
C284     C      0.768560000000     0.222120000000     0.470700000000    -0.0656196  
C285     C      0.802080000000     0.188390000000     0.496420000000    -0.027736   
C286     C      0.780650000000     0.256380000000     0.531490000000    -0.0656407  
C287     C      0.786610000000     0.214040000000     0.496230000000     0.0185858  
C288     C      0.792480000000     0.230690000000     0.525800000000     0.0185301  
C289     C      0.712740000000     0.804730000000     0.463190000000     0.341484   
C290     C      0.663720000000     0.839210000000     0.371350000000     0.338897   
C291     C      0.614670000000     0.812300000000     0.473020000000     0.343023   
C292     C      0.705590000000     0.902240000000     0.460250000000     0.345805   
C293     C      0.836950000000     0.674210000000     0.538800000000     0.341374   
C294     C      0.887740000000     0.641640000000     0.630400000000     0.338792   
C295     C      0.844850000000     0.576990000000     0.542550000000     0.345685   
C296     C      0.935310000000     0.667090000000     0.528280000000     0.342685   
C297     C      0.893820000000     0.647590000000     0.869040000000     0.340089   
C298     C      0.839480000000     0.677190000000     0.962740000000     0.341619   
C299     C      0.851190000000     0.584310000000     0.960010000000     0.343214   
C300     C      0.939770000000     0.679570000000     0.967910000000     0.341785   
C301     C      0.669490000000     0.843440000000     0.132650000000     0.340118   
C302     C      0.725910000000     0.816250000000     0.039320000000     0.341517   
C303     C      0.625390000000     0.813180000000     0.032890000000     0.341969   
C304     C      0.713090000000     0.908730000000     0.042970000000     0.342981   
C305     C      0.968680000000     0.729250000000     0.989740000000    -0.0281685  
C306     C      0.596700000000     0.763650000000     0.010330000000    -0.0281614  
C307     C      0.569820000000     0.803840000000     0.020040000000    -0.0278859  
C308     C      0.548400000000     0.775210000000     0.009560000000     0.0185054  
C309     C      0.563780000000     0.752330000000     0.004020000000     0.0184171  
C310     C      0.548520000000     0.722910000000     0.994400000000    -0.0651685  
C311     C      0.995480000000     0.688910000000     0.980220000000    -0.0282723  
C312     C      0.516810000000     0.769890000000     0.005740000000    -0.0651946  
C313     C      0.516930000000     0.717600000000     0.990580000000     0.0184716  
C314     C      0.001600000000     0.740550000000     0.995930000000     0.0183277  
C315     C      0.726680000000     0.950910000000     0.001060000000    -0.028217   
C316     C      0.837400000000     0.542410000000     0.002300000000    -0.0281116  
C317     C      0.806350000000     0.541390000000     0.952190000000    -0.0283076  
C318     C      0.791790000000     0.517110000000     0.975960000000     0.0186124  
C319     C      0.809460000000     0.517660000000     0.004570000000     0.0185731  
C320     C      0.800150000000     0.997210000000     0.031160000000    -0.0650259  
C321     C      0.757690000000     0.951870000000     0.051190000000    -0.0282784  
C322     C      0.763890000000     0.996140000000     0.972300000000    -0.0651286  
C323     C      0.772220000000     0.976240000000     0.027500000000     0.0184881  
C324     C      0.754570000000     0.975710000000     0.998880000000     0.0186927  
C325     C      0.760010000000     0.781290000000     0.050970000000    -0.0279369  
C326     C      0.805920000000     0.712690000000     0.951140000000    -0.0278332  
C327     C      0.814700000000     0.699560000000     0.009100000000    -0.0277953  
C328     C      0.797830000000     0.724110000000     0.007890000000     0.0186951  
C329     C      0.792820000000     0.731600000000     0.974840000000     0.0187861  
C330     C      0.777880000000     0.754740000000     0.967060000000    -0.0656804  
C331     C      0.751200000000     0.794390000000     0.993000000000    -0.0278385  
C332     C      0.788200000000     0.739360000000     0.035040000000    -0.0656248  
C333     C      0.768250000000     0.769990000000     0.994210000000     0.0187368  
C334     C      0.773270000000     0.762510000000     0.027260000000     0.0187839  
C335     C      0.882580000000     0.667240000000     0.684680000000    -0.0281374  
C336     C      0.909820000000     0.627250000000     0.815060000000    -0.0276275  
C337     C      0.887180000000     0.671270000000     0.814040000000    -0.028267   
C338     C      0.892260000000     0.661470000000     0.779400000000     0.019351   
C339     C      0.905110000000     0.636310000000     0.779810000000     0.0179784  
C340     C      0.910630000000     0.621930000000     0.749840000000    -0.0647148  
C341     C      0.905030000000     0.623070000000     0.684690000000    -0.0276942  
C342     C      0.884280000000     0.673690000000     0.749260000000    -0.0659994  
C343     C      0.902760000000     0.634300000000     0.719580000000     0.0180201  
C344     C      0.889970000000     0.659490000000     0.719410000000     0.0192691  
C345     C      0.651280000000     0.861750000000     0.186640000000    -0.0277069  
C346     C      0.670960000000     0.815470000000     0.316500000000    -0.0282092  
C347     C      0.648260000000     0.859470000000     0.317100000000    -0.0277604  
C348     C      0.652610000000     0.849940000000     0.281940000000     0.0180047  
C349     C      0.665560000000     0.824860000000     0.281760000000     0.0193139  
C350     C      0.673270000000     0.812290000000     0.251710000000    -0.0660758  
C351     C      0.674310000000     0.817980000000     0.187060000000    -0.0282076  
C352     C      0.646540000000     0.863800000000     0.251850000000    -0.0646522  
C353     C      0.667100000000     0.826020000000     0.221730000000     0.0193422  
C354     C      0.654050000000     0.851040000000     0.221670000000     0.0179926  
C355     C      0.963500000000     0.707810000000     0.490660000000    -0.0286358  
C356     C      0.586370000000     0.771610000000     0.510590000000    -0.0283598  
C357     C      0.558450000000     0.793880000000     0.469020000000    -0.028325   
C358     C      0.538790000000     0.766150000000     0.484040000000     0.0185878  
C359     C      0.554750000000     0.753470000000     0.507740000000     0.0185767  
C360     C      0.541450000000     0.726490000000     0.524720000000    -0.0651975  
C361     C      0.991540000000     0.685310000000     0.531970000000    -0.0286439  
C362     C      0.508560000000     0.752550000000     0.476030000000    -0.0651585  
C363     C      0.511240000000     0.712880000000     0.516690000000     0.0186285  
C364     C      0.995150000000     0.725880000000     0.493420000000     0.0189192  
C365     C      0.832460000000     0.532450000000     0.503610000000    -0.0279113  
C366     C      0.718080000000     0.946570000000     0.499530000000    -0.0279096  
C367     C      0.752730000000     0.942620000000     0.453830000000    -0.0281181  
C368     C      0.766540000000     0.967820000000     0.476830000000     0.0186811  
C369     C      0.746820000000     0.970110000000     0.502930000000     0.0186815  
C370     C      0.755040000000     0.991870000000     0.528470000000    -0.0651192  
C371     C      0.797840000000     0.536450000000     0.549320000000    -0.0281088  
C372     C      0.795540000000     0.987110000000     0.474780000000    -0.0652019  
C373     C      0.784030000000     0.511180000000     0.526390000000     0.0185986  
C374     C      0.803750000000     0.508880000000     0.500290000000     0.0187651  
C375     C      0.812350000000     0.717590000000     0.548280000000    -0.0275604  
C376     C      0.736910000000     0.760990000000     0.453870000000    -0.0276058  
C377     C      0.747280000000     0.790210000000     0.505710000000    -0.0276288  
C378     C      0.762600000000     0.764460000000     0.505950000000     0.0186125  
C379     C      0.756700000000     0.747800000000     0.476400000000     0.018481   
C380     C      0.768560000000     0.722120000000     0.470700000000    -0.0655936  
C381     C      0.802090000000     0.688400000000     0.496410000000    -0.0276444  
C382     C      0.780650000000     0.756390000000     0.531490000000    -0.0657243  
C383     C      0.786610000000     0.714050000000     0.496230000000     0.01855    
C384     C      0.792480000000     0.730700000000     0.525790000000     0.0185605  
Cd1      Cd     0.172230000000     0.341680000000     0.443020000000     0.506469   
Cd2      Cd     0.378170000000     0.137690000000     0.558910000000     0.506379   
Cd3      Cd     0.383260000000     0.144720000000     0.940410000000     0.507183   
Cd4      Cd     0.181490000000     0.347780000000     0.061510000000     0.507194   
Cd5      Cd     0.172230000000     0.841690000000     0.443020000000     0.506437   
Cd6      Cd     0.378170000000     0.637690000000     0.558900000000     0.506363   
Cd7      Cd     0.383260000000     0.644730000000     0.940410000000     0.50718    
Cd8      Cd     0.181490000000     0.847790000000     0.061510000000     0.507195   
Cd9      Cd     0.672170000000     0.341750000000     0.443000000000     0.506463   
Cd10     Cd     0.878080000000     0.137750000000     0.558950000000     0.506373   
Cd11     Cd     0.883240000000     0.144780000000     0.940470000000     0.507162   
Cd12     Cd     0.681440000000     0.347830000000     0.061510000000     0.507153   
Cd13     Cd     0.672170000000     0.841750000000     0.443010000000     0.50643    
Cd14     Cd     0.878080000000     0.637750000000     0.558940000000     0.506393   
Cd15     Cd     0.883240000000     0.644780000000     0.940460000000     0.507183   
Cd16     Cd     0.681440000000     0.847840000000     0.061510000000     0.507176   
H1       H      0.063810000000     0.311560000000     0.045090000000     0.0526061  
H2       H      0.104710000000     0.250140000000     0.030570000000     0.0532611  
H3       H      0.060580000000     0.205030000000     0.990290000000     0.0503819  
H4       H      0.504710000000     0.287690000000     0.010070000000     0.0503645  
H5       H      0.455300000000     0.230430000000     0.013200000000     0.0521083  
H6       H      0.501380000000     0.181200000000     0.955050000000     0.0525406  
H7       H      0.070140000000     0.322330000000     0.001410000000     0.0521461  
H8       H      0.110150000000     0.262360000000     0.987260000000     0.0520126  
H9       H      0.995120000000     0.170560000000     0.998970000000     0.052584   
H10      H      0.460500000000     0.242530000000     0.969840000000     0.0533454  
H11      H      0.291210000000     0.057010000000     0.946650000000     0.053964   
H12      H      0.338970000000     0.058570000000     0.023550000000     0.0538838  
H13      H      0.314000000000     0.497490000000     0.053440000000     0.0505138  
H14      H      0.250140000000     0.495720000000     0.949910000000     0.0505527  
H15      H      0.206000000000     0.460240000000     0.001200000000     0.051846   
H16      H      0.272980000000     0.436170000000     0.056650000000     0.0539716  
H17      H      0.312180000000     0.031480000000     0.928050000000     0.0517009  
H18      H      0.358150000000     0.032920000000     0.002150000000     0.0518807  
H19      H      0.251870000000     0.461590000000     0.075250000000     0.0516501  
H20      H      0.225230000000     0.434720000000     0.979640000000     0.0539954  
H21      H      0.300820000000     0.178670000000     0.021030000000     0.0508658  
H22      H      0.287910000000     0.198100000000     0.935450000000     0.0513641  
H23      H      0.273930000000     0.260500000000     0.941180000000     0.0501976  
H24      H      0.292060000000     0.233380000000     0.060760000000     0.0502441  
H25      H      0.243150000000     0.266790000000     0.067900000000     0.0548468  
H26      H      0.264970000000     0.315190000000     0.981010000000     0.0508256  
H27      H      0.336330000000     0.206720000000     0.023140000000     0.0544376  
H28      H      0.322880000000     0.226950000000     0.934090000000     0.0547576  
H29      H      0.229600000000     0.286970000000     0.978730000000     0.0545481  
H30      H      0.277970000000     0.295850000000     0.066440000000     0.0513645  
H31      H      0.362950000000     0.170800000000     0.818470000000     0.0550197  
H32      H      0.397470000000     0.103420000000     0.820140000000     0.0533295  
H33      H      0.420160000000     0.101870000000     0.750070000000     0.0504169  
H34      H      0.373960000000     0.193030000000     0.749030000000     0.0503724  
H35      H      0.358090000000     0.166300000000     0.681790000000     0.0538417  
H36      H      0.429140000000     0.124240000000     0.677540000000     0.0523448  
H37      H      0.400870000000     0.194660000000     0.818930000000     0.0517665  
H38      H      0.434390000000     0.129240000000     0.820410000000     0.0515067  
H39      H      0.392060000000     0.099140000000     0.681770000000     0.0529859  
H40      H      0.395700000000     0.190370000000     0.677520000000     0.0523787  
H41      H      0.123870000000     0.357530000000     0.322720000000     0.0521158  
H42      H      0.157700000000     0.292010000000     0.321780000000     0.0522112  
H43      H      0.184040000000     0.293070000000     0.251670000000     0.050385   
H44      H      0.136940000000     0.383640000000     0.251940000000     0.05041    
H45      H      0.127180000000     0.359870000000     0.179720000000     0.0516716  
H46      H      0.199100000000     0.319080000000     0.184090000000     0.0546886  
H47      H      0.160860000000     0.383210000000     0.321820000000     0.0532037  
H48      H      0.195480000000     0.316160000000     0.320860000000     0.0540998  
H49      H      0.161600000000     0.294700000000     0.180290000000     0.0519205  
H50      H      0.163920000000     0.385710000000     0.183340000000     0.0531003  
H51      H      0.049930000000     0.314550000000     0.475470000000     0.0515057  
H52      H      0.090940000000     0.281610000000     0.536130000000     0.0514201  
H53      H      0.053970000000     0.216560000000     0.543230000000     0.0502868  
H54      H      0.496040000000     0.262440000000     0.457550000000     0.0502761  
H55      H      0.447000000000     0.221780000000     0.495360000000     0.05412    
H56      H      0.500240000000     0.164650000000     0.525460000000     0.0515407  
H57      H      0.059730000000     0.291990000000     0.441390000000     0.0536033  
H58      H      0.102990000000     0.257180000000     0.505470000000     0.0540871  
H59      H      0.490400000000     0.187140000000     0.559590000000     0.0536491  
H60      H      0.459170000000     0.197320000000     0.464810000000     0.0513399  
H61      H      0.267130000000     0.425550000000     0.451940000000     0.0541986  
H62      H      0.213830000000     0.431620000000     0.522160000000     0.0541017  
H63      H      0.239730000000     0.493670000000     0.548870000000     0.0505296  
H64      H      0.310960000000     0.485200000000     0.454390000000     0.0505494  
H65      H      0.352200000000     0.021750000000     0.507510000000     0.0516752  
H66      H      0.283540000000     0.053320000000     0.551290000000     0.0541474  
H67      H      0.249690000000     0.451250000000     0.428240000000     0.0514727  
H68      H      0.198500000000     0.457140000000     0.495760000000     0.0516337  
H69      H      0.301110000000     0.027720000000     0.574990000000     0.0514171  
H70      H      0.336830000000     0.047160000000     0.480980000000     0.0542548  
H71      H      0.264210000000     0.312380000000     0.507130000000     0.0516665  
H72      H      0.248470000000     0.268490000000     0.429660000000     0.0522113  
H73      H      0.263960000000     0.208990000000     0.447680000000     0.050128   
H74      H      0.285510000000     0.269490000000     0.554440000000     0.0501459  
H75      H      0.334100000000     0.234390000000     0.553650000000     0.0529343  
H76      H      0.285450000000     0.166110000000     0.495010000000     0.051598   
H77      H      0.231250000000     0.288680000000     0.526990000000     0.0534678  
H78      H      0.215320000000     0.244220000000     0.448530000000     0.0528738  
H79      H      0.318290000000     0.189940000000     0.475060000000     0.0535233  
H80      H      0.301020000000     0.209920000000     0.572430000000     0.0522272  
H81      H      0.063800000000     0.811560000000     0.045080000000     0.0526076  
H82      H      0.104700000000     0.750140000000     0.030580000000     0.05331    
H83      H      0.060580000000     0.705020000000     0.990300000000     0.0503511  
H84      H      0.504710000000     0.787700000000     0.010050000000     0.0503287  
H85      H      0.455290000000     0.730440000000     0.013190000000     0.0520457  
H86      H      0.501380000000     0.681200000000     0.955060000000     0.0525458  
H87      H      0.070150000000     0.822330000000     0.001400000000     0.0521572  
H88      H      0.110150000000     0.762350000000     0.987270000000     0.052049   
H89      H      0.995120000000     0.670560000000     0.998970000000     0.0525735  
H90      H      0.460510000000     0.742530000000     0.969820000000     0.0533063  
H91      H      0.291210000000     0.557030000000     0.946650000000     0.0539826  
H92      H      0.338970000000     0.558580000000     0.023550000000     0.0538786  
H93      H      0.314000000000     0.997490000000     0.053440000000     0.0505477  
H94      H      0.250150000000     0.995710000000     0.949900000000     0.0505574  
H95      H      0.206010000000     0.960240000000     0.001200000000     0.0518987  
H96      H      0.272980000000     0.936170000000     0.056660000000     0.0539872  
H97      H      0.312160000000     0.531480000000     0.928050000000     0.0516928  
H98      H      0.358140000000     0.532920000000     0.002150000000     0.0518645  
H99      H      0.251870000000     0.961590000000     0.075240000000     0.0516734  
H100     H      0.225230000000     0.934710000000     0.979640000000     0.054042   
H101     H      0.300830000000     0.678670000000     0.021040000000     0.0508555  
H102     H      0.287910000000     0.698100000000     0.935450000000     0.0513639  
H103     H      0.273930000000     0.760500000000     0.941180000000     0.0501983  
H104     H      0.292060000000     0.733390000000     0.060760000000     0.0502419  
H105     H      0.243160000000     0.766790000000     0.067910000000     0.0548144  
H106     H      0.264970000000     0.815200000000     0.981010000000     0.0508026  
H107     H      0.336330000000     0.706730000000     0.023140000000     0.0544287  
H108     H      0.322880000000     0.726950000000     0.934090000000     0.0547569  
H109     H      0.229590000000     0.786970000000     0.978730000000     0.0545316  
H110     H      0.277970000000     0.795860000000     0.066440000000     0.0513485  
H111     H      0.362940000000     0.670800000000     0.818460000000     0.0549935  
H112     H      0.397470000000     0.603420000000     0.820140000000     0.0533258  
H113     H      0.420150000000     0.601860000000     0.750060000000     0.0504002  
H114     H      0.373950000000     0.693030000000     0.749020000000     0.0503579  
H115     H      0.358090000000     0.666300000000     0.681780000000     0.0538697  
H116     H      0.429130000000     0.624240000000     0.677540000000     0.0523396  
H117     H      0.400860000000     0.694660000000     0.818930000000     0.0517741  
H118     H      0.434380000000     0.629240000000     0.820410000000     0.051516   
H119     H      0.392050000000     0.599140000000     0.681770000000     0.0529768  
H120     H      0.395700000000     0.690370000000     0.677520000000     0.0523935  
H121     H      0.123870000000     0.857540000000     0.322720000000     0.0521721  
H122     H      0.157700000000     0.792020000000     0.321790000000     0.0522173  
H123     H      0.184040000000     0.793070000000     0.251670000000     0.0503427  
H124     H      0.136940000000     0.883640000000     0.251940000000     0.0504683  
H125     H      0.127180000000     0.859870000000     0.179720000000     0.0516998  
H126     H      0.199100000000     0.819090000000     0.184090000000     0.0546815  
H127     H      0.160850000000     0.883210000000     0.321820000000     0.0532648  
H128     H      0.195480000000     0.816170000000     0.320860000000     0.054102   
H129     H      0.161600000000     0.794700000000     0.180300000000     0.0518971  
H130     H      0.163920000000     0.885720000000     0.183340000000     0.0531242  
H131     H      0.049930000000     0.814550000000     0.475480000000     0.0515044  
H132     H      0.090940000000     0.781610000000     0.536130000000     0.051419   
H133     H      0.053970000000     0.716560000000     0.543220000000     0.0502732  
H134     H      0.496040000000     0.762440000000     0.457550000000     0.0503083  
H135     H      0.447000000000     0.721780000000     0.495360000000     0.0541319  
H136     H      0.500240000000     0.664650000000     0.525450000000     0.0515367  
H137     H      0.059730000000     0.791990000000     0.441390000000     0.0536088  
H138     H      0.102990000000     0.757180000000     0.505460000000     0.0540976  
H139     H      0.490400000000     0.687140000000     0.559590000000     0.0536499  
H140     H      0.459170000000     0.697320000000     0.464810000000     0.0513446  
H141     H      0.267130000000     0.925550000000     0.451940000000     0.054189   
H142     H      0.213840000000     0.931610000000     0.522170000000     0.0540837  
H143     H      0.239740000000     0.993650000000     0.548890000000     0.0505295  
H144     H      0.310970000000     0.985200000000     0.454400000000     0.0505658  
H145     H      0.352190000000     0.521750000000     0.507490000000     0.0516406  
H146     H      0.283540000000     0.553340000000     0.551270000000     0.0541752  
H147     H      0.249690000000     0.951260000000     0.428250000000     0.0514648  
H148     H      0.198500000000     0.957150000000     0.495780000000     0.0516142  
H149     H      0.301100000000     0.527730000000     0.574970000000     0.0514421  
H150     H      0.336830000000     0.547170000000     0.480970000000     0.0542339  
H151     H      0.264210000000     0.812390000000     0.507130000000     0.0516512  
H152     H      0.248470000000     0.768500000000     0.429660000000     0.0522025  
H153     H      0.263960000000     0.709000000000     0.447680000000     0.0501569  
H154     H      0.285510000000     0.769490000000     0.554440000000     0.0501474  
H155     H      0.334100000000     0.734400000000     0.553650000000     0.0529306  
H156     H      0.285460000000     0.666120000000     0.495000000000     0.0516085  
H157     H      0.231250000000     0.788690000000     0.526990000000     0.0534652  
H158     H      0.215320000000     0.744220000000     0.448520000000     0.0528566  
H159     H      0.318290000000     0.689940000000     0.475060000000     0.0535284  
H160     H      0.301020000000     0.709930000000     0.572430000000     0.0522291  
H161     H      0.563790000000     0.311510000000     0.045210000000     0.0526497  
H162     H      0.604790000000     0.250200000000     0.030370000000     0.053328   
H163     H      0.560620000000     0.205090000000     0.990130000000     0.0503333  
H164     H      0.004790000000     0.287780000000     0.009820000000     0.0503007  
H165     H      0.955340000000     0.230580000000     0.012980000000     0.0521003  
H166     H      0.001200000000     0.181330000000     0.954890000000     0.052843   
H167     H      0.570010000000     0.322340000000     0.001530000000     0.0521851  
H168     H      0.610090000000     0.262500000000     0.987070000000     0.052053   
H169     H      0.495360000000     0.170460000000     0.998780000000     0.0521686  
H170     H      0.960590000000     0.242570000000     0.969580000000     0.0533227  
H171     H      0.791200000000     0.057060000000     0.946670000000     0.053975   
H172     H      0.838900000000     0.058650000000     0.023620000000     0.0538691  
H173     H      0.813910000000     0.497570000000     0.053520000000     0.0505705  
H174     H      0.750130000000     0.495760000000     0.949920000000     0.0505544  
H175     H      0.705960000000     0.460290000000     0.001190000000     0.051875   
H176     H      0.772900000000     0.436250000000     0.056720000000     0.0540255  
H177     H      0.812190000000     0.031520000000     0.928110000000     0.0517062  
H178     H      0.858100000000     0.032990000000     0.002260000000     0.0518542  
H179     H      0.751770000000     0.461660000000     0.075280000000     0.0516809  
H180     H      0.725210000000     0.434770000000     0.979660000000     0.0540217  
H181     H      0.800860000000     0.178770000000     0.021140000000     0.0508505  
H182     H      0.787920000000     0.198160000000     0.935550000000     0.0513669  
H183     H      0.773940000000     0.260560000000     0.941260000000     0.0502346  
H184     H      0.792080000000     0.233480000000     0.060850000000     0.0502127  
H185     H      0.743150000000     0.266870000000     0.067970000000     0.0548379  
H186     H      0.764970000000     0.315270000000     0.981070000000     0.0508112  
H187     H      0.836360000000     0.206830000000     0.023220000000     0.0544201  
H188     H      0.822890000000     0.227020000000     0.934170000000     0.0547527  
H189     H      0.729600000000     0.287030000000     0.978780000000     0.0545279  
H190     H      0.777960000000     0.295950000000     0.066510000000     0.0513708  
H191     H      0.862790000000     0.170760000000     0.818530000000     0.0549558  
H192     H      0.897440000000     0.103460000000     0.820190000000     0.0533542  
H193     H      0.920120000000     0.101950000000     0.750100000000     0.0504743  
H194     H      0.873750000000     0.193000000000     0.749090000000     0.0503411  
H195     H      0.857920000000     0.166260000000     0.681850000000     0.0538712  
H196     H      0.929060000000     0.124340000000     0.677580000000     0.0523779  
H197     H      0.900680000000     0.194680000000     0.818980000000     0.0517182  
H198     H      0.934330000000     0.129340000000     0.820440000000     0.0515492  
H199     H      0.892010000000     0.099190000000     0.681810000000     0.053023   
H200     H      0.895490000000     0.190380000000     0.677580000000     0.0524054  
H201     H      0.623830000000     0.357610000000     0.322710000000     0.052118   
H202     H      0.657630000000     0.292060000000     0.321790000000     0.0522637  
H203     H      0.683940000000     0.293080000000     0.251660000000     0.0503673  
H204     H      0.636900000000     0.383690000000     0.251920000000     0.0504462  
H205     H      0.627120000000     0.359910000000     0.179710000000     0.0517264  
H206     H      0.699000000000     0.319070000000     0.184070000000     0.0546872  
H207     H      0.660830000000     0.383260000000     0.321800000000     0.0532138  
H208     H      0.695410000000     0.316200000000     0.320840000000     0.0541555  
H209     H      0.661490000000     0.294710000000     0.180290000000     0.0519001  
H210     H      0.663870000000     0.385740000000     0.183320000000     0.0531526  
H211     H      0.549760000000     0.314380000000     0.475180000000     0.0514998  
H212     H      0.590700000000     0.281750000000     0.536110000000     0.0514109  
H213     H      0.553970000000     0.216620000000     0.543220000000     0.0502954  
H214     H      0.996000000000     0.262760000000     0.457950000000     0.0505001  
H215     H      0.946910000000     0.222080000000     0.495820000000     0.0541567  
H216     H      0.000030000000     0.164770000000     0.525400000000     0.051726   
H217     H      0.559780000000     0.291870000000     0.441180000000     0.0536353  
H218     H      0.603020000000     0.257350000000     0.505600000000     0.0541244  
H219     H      0.990040000000     0.187380000000     0.559800000000     0.0539773  
H220     H      0.959060000000     0.197740000000     0.465120000000     0.0514047  
H221     H      0.767060000000     0.425630000000     0.451910000000     0.0541877  
H222     H      0.713760000000     0.431690000000     0.522120000000     0.0540949  
H223     H      0.739660000000     0.493730000000     0.548840000000     0.0505215  
H224     H      0.810890000000     0.485290000000     0.454350000000     0.0505597  
H225     H      0.852130000000     0.021830000000     0.507470000000     0.0516246  
H226     H      0.783470000000     0.053380000000     0.551280000000     0.0541641  
H227     H      0.749620000000     0.451330000000     0.428200000000     0.0514531  
H228     H      0.698430000000     0.457220000000     0.495720000000     0.0516295  
H229     H      0.801050000000     0.027780000000     0.574960000000     0.0514492  
H230     H      0.836750000000     0.047240000000     0.480950000000     0.0542016  
H231     H      0.764030000000     0.312370000000     0.507260000000     0.0516768  
H232     H      0.748490000000     0.268630000000     0.429670000000     0.0522028  
H233     H      0.763990000000     0.209120000000     0.447620000000     0.0501394  
H234     H      0.785250000000     0.269410000000     0.554550000000     0.050131   
H235     H      0.833880000000     0.234360000000     0.553800000000     0.0529398  
H236     H      0.785430000000     0.166170000000     0.494900000000     0.0516077  
H237     H      0.731040000000     0.288610000000     0.527010000000     0.0534754  
H238     H      0.715310000000     0.244300000000     0.448420000000     0.0528586  
H239     H      0.818290000000     0.190070000000     0.475080000000     0.0535459  
H240     H      0.800770000000     0.209820000000     0.572450000000     0.0522324  
H241     H      0.563790000000     0.811520000000     0.045200000000     0.0526488  
H242     H      0.604790000000     0.750200000000     0.030390000000     0.0533042  
H243     H      0.560610000000     0.705090000000     0.990140000000     0.0503402  
H244     H      0.004790000000     0.787790000000     0.009800000000     0.0503087  
H245     H      0.955330000000     0.730600000000     0.012960000000     0.052113   
H246     H      0.001200000000     0.681320000000     0.954890000000     0.0528276  
H247     H      0.570010000000     0.822340000000     0.001520000000     0.05217    
H248     H      0.610090000000     0.762500000000     0.987090000000     0.0520312  
H249     H      0.495350000000     0.670460000000     0.998780000000     0.052177   
H250     H      0.960590000000     0.742570000000     0.969560000000     0.0533537  
H251     H      0.791190000000     0.557070000000     0.946670000000     0.0539871  
H252     H      0.838900000000     0.558660000000     0.023620000000     0.053904   
H253     H      0.813920000000     0.997570000000     0.053520000000     0.0505458  
H254     H      0.750140000000     0.995750000000     0.949910000000     0.0505381  
H255     H      0.705970000000     0.960290000000     0.001190000000     0.0519109  
H256     H      0.772900000000     0.936250000000     0.056730000000     0.0540049  
H257     H      0.812170000000     0.531520000000     0.928110000000     0.0517041  
H258     H      0.858080000000     0.532990000000     0.002260000000     0.0518938  
H259     H      0.751770000000     0.961670000000     0.075280000000     0.0516681  
H260     H      0.725210000000     0.934760000000     0.979660000000     0.05405    
H261     H      0.800870000000     0.678770000000     0.021140000000     0.050855   
H262     H      0.787920000000     0.698170000000     0.935550000000     0.0513722  
H263     H      0.773930000000     0.760560000000     0.941260000000     0.0502349  
H264     H      0.792080000000     0.733490000000     0.060850000000     0.0502131  
H265     H      0.743150000000     0.766870000000     0.067970000000     0.0548357  
H266     H      0.764960000000     0.815270000000     0.981060000000     0.0508005  
H267     H      0.836370000000     0.706840000000     0.023220000000     0.0544168  
H268     H      0.822890000000     0.727020000000     0.934170000000     0.0547534  
H269     H      0.729600000000     0.787030000000     0.978780000000     0.0545263  
H270     H      0.777960000000     0.795950000000     0.066510000000     0.0513714  
H271     H      0.862790000000     0.670760000000     0.818520000000     0.0549639  
H272     H      0.897440000000     0.603460000000     0.820180000000     0.0533448  
H273     H      0.920120000000     0.601950000000     0.750090000000     0.050472   
H274     H      0.873750000000     0.693000000000     0.749080000000     0.0503467  
H275     H      0.857910000000     0.666250000000     0.681840000000     0.0538876  
H276     H      0.929060000000     0.624340000000     0.677570000000     0.0523689  
H277     H      0.900680000000     0.694680000000     0.818970000000     0.0517213  
H278     H      0.934330000000     0.629330000000     0.820440000000     0.051529   
H279     H      0.892000000000     0.599180000000     0.681800000000     0.0530057  
H280     H      0.895490000000     0.690380000000     0.677580000000     0.0524163  
H281     H      0.623830000000     0.857610000000     0.322710000000     0.0521833  
H282     H      0.657630000000     0.792070000000     0.321790000000     0.0522537  
H283     H      0.683940000000     0.793090000000     0.251670000000     0.0503984  
H284     H      0.636900000000     0.883700000000     0.251930000000     0.0504286  
H285     H      0.627120000000     0.859910000000     0.179720000000     0.0517395  
H286     H      0.699000000000     0.819080000000     0.184080000000     0.0546802  
H287     H      0.660830000000     0.883270000000     0.321800000000     0.0532624  
H288     H      0.695410000000     0.816210000000     0.320850000000     0.0541423  
H289     H      0.661490000000     0.794720000000     0.180290000000     0.0519035  
H290     H      0.663860000000     0.885740000000     0.183320000000     0.0531677  
H291     H      0.549760000000     0.814390000000     0.475190000000     0.0515113  
H292     H      0.590700000000     0.781760000000     0.536110000000     0.0513726  
H293     H      0.553970000000     0.716620000000     0.543220000000     0.0502862  
H294     H      0.996000000000     0.762760000000     0.457950000000     0.0504958  
H295     H      0.946910000000     0.722080000000     0.495820000000     0.0541579  
H296     H      0.000020000000     0.664770000000     0.525390000000     0.0517567  
H297     H      0.559780000000     0.791880000000     0.441180000000     0.0536491  
H298     H      0.603020000000     0.757360000000     0.505600000000     0.0540867  
H299     H      0.990040000000     0.687380000000     0.559790000000     0.0539938  
H300     H      0.959060000000     0.697750000000     0.465110000000     0.0513939  
H301     H      0.767060000000     0.925630000000     0.451910000000     0.0542067  
H302     H      0.713760000000     0.931690000000     0.522130000000     0.0541214  
H303     H      0.739670000000     0.993720000000     0.548860000000     0.0505488  
H304     H      0.810890000000     0.985280000000     0.454360000000     0.0505643  
H305     H      0.852120000000     0.521830000000     0.507450000000     0.0516455  
H306     H      0.783470000000     0.553400000000     0.551270000000     0.0541831  
H307     H      0.749620000000     0.951340000000     0.428220000000     0.051493   
H308     H      0.698430000000     0.957220000000     0.495740000000     0.0516532  
H309     H      0.801030000000     0.527780000000     0.574940000000     0.051465   
H310     H      0.836750000000     0.547260000000     0.480940000000     0.054218   
H311     H      0.764030000000     0.812380000000     0.507270000000     0.0516607  
H312     H      0.748490000000     0.768640000000     0.429670000000     0.0522264  
H313     H      0.763990000000     0.709130000000     0.447610000000     0.05013    
H314     H      0.785250000000     0.769410000000     0.554540000000     0.0501807  
H315     H      0.833880000000     0.734370000000     0.553800000000     0.052926   
H316     H      0.785430000000     0.666180000000     0.494890000000     0.0515854  
H317     H      0.731040000000     0.788620000000     0.527010000000     0.053468   
H318     H      0.715310000000     0.744310000000     0.448420000000     0.0528903  
H319     H      0.818300000000     0.690080000000     0.475070000000     0.0535178  
H320     H      0.800770000000     0.709830000000     0.572450000000     0.0522205  
N1       N      0.466040000000     0.197440000000     0.979630000000    -0.151036   
N2       N      0.099270000000     0.295270000000     0.020830000000    -0.151093   
N3       N      0.230240000000     0.436140000000     0.033270000000    -0.150886   
N4       N      0.333960000000     0.056940000000     0.969930000000    -0.150796   
N5       N      0.245710000000     0.299690000000     0.028540000000    -0.151      
N6       N      0.320030000000     0.193980000000     0.973410000000    -0.15099    
N7       N      0.392030000000     0.143900000000     0.664180000000    -0.150466   
N8       N      0.397750000000     0.149030000000     0.835100000000    -0.150738   
N9       N      0.164760000000     0.340940000000     0.166370000000    -0.150837   
N10      N      0.160550000000     0.337770000000     0.337380000000    -0.150419   
N11      N      0.462010000000     0.183670000000     0.515850000000    -0.151073   
N12      N      0.088080000000     0.295410000000     0.485150000000    -0.151148   
N13      N      0.327320000000     0.049490000000     0.533610000000    -0.151209   
N14      N      0.223350000000     0.429460000000     0.469520000000    -0.151216   
N15      N      0.318060000000     0.191800000000     0.528810000000    -0.151182   
N16      N      0.231580000000     0.286820000000     0.473250000000    -0.151234   
N17      N      0.466030000000     0.697450000000     0.979620000000    -0.151106   
N18      N      0.099270000000     0.795270000000     0.020830000000    -0.15103    
N19      N      0.230240000000     0.936140000000     0.033270000000    -0.150851   
N20      N      0.333950000000     0.556950000000     0.969930000000    -0.150844   
N21      N      0.245700000000     0.799690000000     0.028540000000    -0.151062   
N22      N      0.320030000000     0.693980000000     0.973410000000    -0.151051   
N23      N      0.392020000000     0.643900000000     0.664170000000    -0.150538   
N24      N      0.397750000000     0.649030000000     0.835100000000    -0.150749   
N25      N      0.164750000000     0.840940000000     0.166370000000    -0.150842   
N26      N      0.160550000000     0.837780000000     0.337390000000    -0.150445   
N27      N      0.462010000000     0.683670000000     0.515850000000    -0.151086   
N28      N      0.088080000000     0.795410000000     0.485150000000    -0.151123   
N29      N      0.327320000000     0.549500000000     0.533590000000    -0.15127    
N30      N      0.223350000000     0.929460000000     0.469530000000    -0.151286   
N31      N      0.318060000000     0.691810000000     0.528810000000    -0.151175   
N32      N      0.231580000000     0.786830000000     0.473250000000    -0.151243   
N33      N      0.966070000000     0.197500000000     0.979550000000    -0.151099   
N34      N      0.599240000000     0.295320000000     0.020790000000    -0.151009   
N35      N      0.730180000000     0.436200000000     0.033290000000    -0.150801   
N36      N      0.833930000000     0.057000000000     0.970000000000    -0.150842   
N37      N      0.745700000000     0.299760000000     0.028590000000    -0.150973   
N38      N      0.820050000000     0.194060000000     0.973510000000    -0.151033   
N39      N      0.891900000000     0.143930000000     0.664220000000    -0.150499   
N40      N      0.897660000000     0.149050000000     0.835150000000    -0.150755   
N41      N      0.664670000000     0.340960000000     0.166360000000    -0.150806   
N42      N      0.660500000000     0.337830000000     0.337370000000    -0.150407   
N43      N      0.961950000000     0.183890000000     0.516080000000    -0.151147   
N44      N      0.588000000000     0.295440000000     0.485060000000    -0.151137   
N45      N      0.827250000000     0.049560000000     0.533590000000    -0.151244   
N46      N      0.723280000000     0.429540000000     0.469490000000    -0.151259   
N47      N      0.817940000000     0.191820000000     0.528840000000    -0.151163   
N48      N      0.731490000000     0.286860000000     0.473260000000    -0.151214   
N49      N      0.966070000000     0.697500000000     0.979540000000    -0.151074   
N50      N      0.599240000000     0.795320000000     0.020790000000    -0.151023   
N51      N      0.730180000000     0.936210000000     0.033290000000    -0.150765   
N52      N      0.833920000000     0.557010000000     0.970000000000    -0.150786   
N53      N      0.745700000000     0.799760000000     0.028590000000    -0.150976   
N54      N      0.820050000000     0.694070000000     0.973500000000    -0.150997   
N55      N      0.891900000000     0.643930000000     0.664220000000    -0.150426   
N56      N      0.897650000000     0.649060000000     0.835140000000    -0.150767   
N57      N      0.664670000000     0.840960000000     0.166360000000    -0.150813   
N58      N      0.660500000000     0.837830000000     0.337380000000    -0.150413   
N59      N      0.961950000000     0.683890000000     0.516070000000    -0.151084   
N60      N      0.588000000000     0.795440000000     0.485070000000    -0.151126   
N61      N      0.827250000000     0.549560000000     0.533570000000    -0.151179   
N62      N      0.723280000000     0.929540000000     0.469490000000    -0.151233   
N63      N      0.817940000000     0.691820000000     0.528830000000    -0.151233   
N64      N      0.731490000000     0.786870000000     0.473260000000    -0.151177   
O1       O      0.175770000000     0.320420000000     0.387050000000    -0.241412   
O2       O      0.181380000000     0.390130000000     0.475730000000    -0.249599   
O3       O      0.198810000000     0.300330000000     0.435380000000    -0.239923   
O4       O      0.139920000000     0.309340000000     0.484740000000    -0.252121   
O5       O      0.115810000000     0.330380000000     0.448590000000    -0.249906   
O6       O      0.208290000000     0.326240000000     0.481400000000    -0.247762   
O7       O      0.155270000000     0.359250000000     0.388780000000    -0.24596    
O8       O      0.213340000000     0.386980000000     0.436410000000    -0.253688   
O9       O      0.375630000000     0.160040000000     0.614490000000    -0.241308   
O10      O      0.434460000000     0.148860000000     0.552680000000    -0.250007   
O11      O      0.351050000000     0.178590000000     0.566600000000    -0.239914   
O12      O      0.337290000000     0.092220000000     0.566350000000    -0.253513   
O13      O      0.369060000000     0.088960000000     0.526860000000    -0.249738   
O14      O      0.341860000000     0.152770000000     0.520490000000    -0.247821   
O15      O      0.395830000000     0.121000000000     0.613250000000    -0.245892   
O16      O      0.410150000000     0.169850000000     0.516690000000    -0.251952   
O17      O      0.345460000000     0.175150000000     0.931690000000    -0.240041   
O18      O      0.437920000000     0.152460000000     0.957900000000    -0.247558   
O19      O      0.381070000000     0.165840000000     0.884230000000    -0.243475   
O20      O      0.344820000000     0.097230000000     0.933620000000    -0.253236   
O21      O      0.373690000000     0.098470000000     0.976980000000    -0.247811   
O22      O      0.402460000000     0.127720000000     0.886790000000    -0.248532   
O23      O      0.353140000000     0.163400000000     0.983220000000    -0.24791    
O24      O      0.415890000000     0.189470000000     0.965990000000    -0.252243   
O25      O      0.219880000000     0.318040000000     0.070240000000    -0.240237   
O26      O      0.190870000000     0.394410000000     0.025670000000    -0.247889   
O27      O      0.182960000000     0.325670000000     0.117280000000    -0.243667   
O28      O      0.149290000000     0.303170000000     0.035110000000    -0.251978   
O29      O      0.127120000000     0.340080000000     0.043170000000    -0.247525   
O30      O      0.161200000000     0.363550000000     0.115170000000    -0.248438   
O31      O      0.212010000000     0.329630000000     0.018700000000    -0.247833   
O32      O      0.219520000000     0.395540000000     0.069190000000    -0.253047   
O33      O      0.175770000000     0.820430000000     0.387050000000    -0.241409   
O34      O      0.181380000000     0.890140000000     0.475730000000    -0.249653   
O35      O      0.198810000000     0.800330000000     0.435380000000    -0.239929   
O36      O      0.139920000000     0.809340000000     0.484740000000    -0.252074   
O37      O      0.115810000000     0.830390000000     0.448590000000    -0.249801   
O38      O      0.208290000000     0.826240000000     0.481410000000    -0.247804   
O39      O      0.155270000000     0.859260000000     0.388790000000    -0.245918   
O40      O      0.213340000000     0.886990000000     0.436410000000    -0.25364    
O41      O      0.375630000000     0.660040000000     0.614480000000    -0.241344   
O42      O      0.434460000000     0.648860000000     0.552670000000    -0.250008   
O43      O      0.351050000000     0.678590000000     0.566600000000    -0.239794   
O44      O      0.337280000000     0.592230000000     0.566340000000    -0.253454   
O45      O      0.369050000000     0.588960000000     0.526850000000    -0.249736   
O46      O      0.341860000000     0.652780000000     0.520480000000    -0.24778    
O47      O      0.395820000000     0.621000000000     0.613250000000    -0.245916   
O48      O      0.410150000000     0.669860000000     0.516680000000    -0.25192    
O49      O      0.345460000000     0.675160000000     0.931690000000    -0.240075   
O50      O      0.437920000000     0.652460000000     0.957900000000    -0.247573   
O51      O      0.381070000000     0.665850000000     0.884230000000    -0.243363   
O52      O      0.344820000000     0.597230000000     0.933620000000    -0.253239   
O53      O      0.373690000000     0.598480000000     0.976980000000    -0.247696   
O54      O      0.402460000000     0.627720000000     0.886790000000    -0.248368   
O55      O      0.353140000000     0.663410000000     0.983220000000    -0.247935   
O56      O      0.415890000000     0.689470000000     0.965980000000    -0.252271   
O57      O      0.219880000000     0.818050000000     0.070240000000    -0.240308   
O58      O      0.190870000000     0.894410000000     0.025670000000    -0.247861   
O59      O      0.182960000000     0.825670000000     0.117290000000    -0.243629   
O60      O      0.149280000000     0.803160000000     0.035130000000    -0.251968   
O61      O      0.127120000000     0.840090000000     0.043170000000    -0.247444   
O62      O      0.161200000000     0.863550000000     0.115170000000    -0.248506   
O63      O      0.212010000000     0.829630000000     0.018710000000    -0.248019   
O64      O      0.219520000000     0.895540000000     0.069190000000    -0.253129   
O65      O      0.675710000000     0.320480000000     0.387040000000    -0.241462   
O66      O      0.681310000000     0.390210000000     0.475690000000    -0.249556   
O67      O      0.698790000000     0.300420000000     0.435350000000    -0.239982   
O68      O      0.639830000000     0.309490000000     0.484780000000    -0.252285   
O69      O      0.615740000000     0.330360000000     0.448460000000    -0.249929   
O70      O      0.708160000000     0.326250000000     0.481440000000    -0.247693   
O71      O      0.655230000000     0.359320000000     0.388770000000    -0.245938   
O72      O      0.713280000000     0.387050000000     0.436390000000    -0.253703   
O73      O      0.875480000000     0.160050000000     0.614540000000    -0.241348   
O74      O      0.934370000000     0.148910000000     0.552720000000    -0.249941   
O75      O      0.850870000000     0.178570000000     0.566670000000    -0.239924   
O76      O      0.837220000000     0.092270000000     0.566360000000    -0.253539   
O77      O      0.868980000000     0.089040000000     0.526850000000    -0.249712   
O78      O      0.841830000000     0.152860000000     0.520470000000    -0.24775    
O79      O      0.895760000000     0.121060000000     0.613290000000    -0.245763   
O80      O      0.910090000000     0.170060000000     0.516860000000    -0.252006   
O81      O      0.845440000000     0.175210000000     0.931780000000    -0.240095   
O82      O      0.937900000000     0.152480000000     0.957960000000    -0.247556   
O83      O      0.880970000000     0.165850000000     0.884280000000    -0.243495   
O84      O      0.844820000000     0.097270000000     0.933670000000    -0.253199   
O85      O      0.873650000000     0.098540000000     0.977070000000    -0.247671   
O86      O      0.902440000000     0.127780000000     0.886840000000    -0.248422   
O87      O      0.853160000000     0.163480000000     0.983310000000    -0.247882   
O88      O      0.915920000000     0.189550000000     0.965920000000    -0.252176   
O89      O      0.719840000000     0.318100000000     0.070280000000    -0.240211   
O90      O      0.690820000000     0.394460000000     0.025670000000    -0.24787    
O91      O      0.682880000000     0.325690000000     0.117270000000    -0.243652   
O92      O      0.649280000000     0.303250000000     0.035000000000    -0.251953   
O93      O      0.627050000000     0.340100000000     0.043220000000    -0.247629   
O94      O      0.661150000000     0.363590000000     0.115160000000    -0.248399   
O95      O      0.712000000000     0.329690000000     0.018730000000    -0.247872   
O96      O      0.719460000000     0.395600000000     0.069210000000    -0.253076   
O97      O      0.675710000000     0.820480000000     0.387050000000    -0.241296   
O98      O      0.681310000000     0.890220000000     0.475700000000    -0.249554   
O99      O      0.698780000000     0.800420000000     0.435350000000    -0.240034   
O100     O      0.639830000000     0.809490000000     0.484780000000    -0.25212    
O101     O      0.615740000000     0.830370000000     0.448460000000    -0.249885   
O102     O      0.708160000000     0.826250000000     0.481440000000    -0.247869   
O103     O      0.655230000000     0.859330000000     0.388770000000    -0.245868   
O104     O      0.713280000000     0.887050000000     0.436390000000    -0.253623   
O105     O      0.875480000000     0.660060000000     0.614530000000    -0.241218   
O106     O      0.934370000000     0.648910000000     0.552720000000    -0.249885   
O107     O      0.850870000000     0.678570000000     0.566660000000    -0.239924   
O108     O      0.837210000000     0.592280000000     0.566350000000    -0.253516   
O109     O      0.868980000000     0.589040000000     0.526850000000    -0.249685   
O110     O      0.841830000000     0.652860000000     0.520470000000    -0.247735   
O111     O      0.895750000000     0.621060000000     0.613280000000    -0.245769   
O112     O      0.910080000000     0.670060000000     0.516860000000    -0.251878   
O113     O      0.845440000000     0.675210000000     0.931770000000    -0.240089   
O114     O      0.937900000000     0.652480000000     0.957960000000    -0.247436   
O115     O      0.880970000000     0.665850000000     0.884280000000    -0.243517   
O116     O      0.844810000000     0.597280000000     0.933670000000    -0.253243   
O117     O      0.873650000000     0.598550000000     0.977060000000    -0.247691   
O118     O      0.902430000000     0.627780000000     0.886830000000    -0.248447   
O119     O      0.853160000000     0.663490000000     0.983300000000    -0.247935   
O120     O      0.915920000000     0.689560000000     0.965900000000    -0.252238   
O121     O      0.719840000000     0.818110000000     0.070280000000    -0.24018    
O122     O      0.690820000000     0.894460000000     0.025670000000    -0.247779   
O123     O      0.682880000000     0.825690000000     0.117280000000    -0.243617   
O124     O      0.649270000000     0.803250000000     0.035010000000    -0.252016   
O125     O      0.627050000000     0.840110000000     0.043220000000    -0.247536   
O126     O      0.661150000000     0.863590000000     0.115160000000    -0.248506   
O127     O      0.711990000000     0.829690000000     0.018740000000    -0.247865   
O128     O      0.719450000000     0.895600000000     0.069220000000    -0.252933   


