data_structure

_audit_creation_method RASPA-1.0
_audit_creation_date 2023-5-23
_audit_author_name 'Poobodin Mano'

_cell_length_a    65.5383
_cell_length_b    66.1975
_cell_length_c    38.4319
_cell_angle_alpha 90.032
_cell_angle_beta  89.9682
_cell_angle_gamma 120.508
_cell_volume      143653

_symmetry_cell_setting          triclinic
_symmetry_space_group_name_Hall 'P 1'
_symmetry_space_group_name_H-M  'P 1'
_symmetry_Int_Tables_number     1

_symmetry_equiv_pos_as_xyz 'x,y,z'

loop_
_atom_site_label
_atom_site_type_symbol
_atom_site_fract_x
_atom_site_fract_y
_atom_site_fract_z
_atom_site_charge
C1       C      0.459900000000     0.601580000000     0.110680000000     0.346452   
C2       C      0.393850000000     0.545630000000     0.039060000000     0.34421    
C3       C      0.454130000000     0.531640000000     0.074730000000     0.341523   
C4       C      0.401080000000     0.532180000000     0.157010000000     0.343073   
C5       C      0.537440000000     0.393250000000     0.971350000000     0.346693   
C6       C      0.604610000000     0.445700000000     0.045920000000     0.344053   
C7       C      0.599970000000     0.461860000000     0.930170000000     0.343016   
C8       C      0.546390000000     0.463280000000     0.012360000000     0.34101    
C9       C      0.871170000000     0.802020000000     0.137460000000     0.345561   
C10      C      0.941810000000     0.816680000000     0.204740000000     0.342292   
C11      C      0.880890000000     0.740870000000     0.176750000000     0.341898   
C12      C      0.932150000000     0.797300000000     0.090380000000     0.34346    
C13      C      0.723630000000     0.506470000000     0.218850000000     0.342584   
C14      C      0.793670000000     0.518860000000     0.284790000000     0.345436   
C15      C      0.786120000000     0.581610000000     0.246690000000     0.34231    
C16      C      0.734810000000     0.526500000000     0.333600000000     0.342934   
C17      C      0.272060000000     0.779750000000     0.380510000000     0.344097   
C18      C      0.205840000000     0.725100000000     0.307830000000     0.346429   
C19      C      0.211930000000     0.794620000000     0.346630000000     0.341278   
C20      C      0.265910000000     0.795260000000     0.264370000000     0.343706   
C21      C      0.127530000000     0.932410000000     0.451720000000     0.346762   
C22      C      0.060260000000     0.878290000000     0.378610000000     0.344075   
C23      C      0.119720000000     0.862530000000     0.411790000000     0.341359   
C24      C      0.066940000000     0.864050000000     0.495360000000     0.342803   
C25      C      0.539490000000     0.141170000000     0.468510000000     0.345468   
C26      C      0.609550000000     0.153030000000     0.531550000000     0.342556   
C27      C      0.547490000000     0.077820000000     0.503880000000     0.342429   
C28      C      0.598100000000     0.132900000000     0.416980000000     0.34366    
C29      C      0.393400000000     0.844030000000     0.550090000000     0.342807   
C30      C      0.462350000000     0.853580000000     0.613240000000     0.34549    
C31      C      0.457370000000     0.918760000000     0.577110000000     0.342841   
C32      C      0.406020000000     0.865490000000     0.664310000000     0.343849   
C33      C      0.869340000000     0.058850000000     0.636050000000     0.34616    
C34      C      0.935740000000     0.112640000000     0.710200000000     0.344253   
C35      C      0.931850000000     0.128280000000     0.593520000000     0.343673   
C36      C      0.877080000000     0.128660000000     0.673610000000     0.341509   
C37      C      0.796050000000     0.270050000000     0.776720000000     0.346282   
C38      C      0.729090000000     0.216640000000     0.703500000000     0.344278   
C39      C      0.787510000000     0.199660000000     0.737340000000     0.341343   
C40      C      0.734850000000     0.200740000000     0.820010000000     0.343156   
C41      C      0.275470000000     0.483250000000     0.864800000000     0.342305   
C42      C      0.205190000000     0.469950000000     0.797880000000     0.345267   
C43      C      0.265750000000     0.464600000000     0.750520000000     0.34358    
C44      C      0.213800000000     0.408070000000     0.836750000000     0.34225    
C45      C      0.055960000000     0.174910000000     0.881690000000     0.34255    
C46      C      0.126900000000     0.186120000000     0.944550000000     0.344969   
C47      C      0.119640000000     0.249090000000     0.908470000000     0.34284    
C48      C      0.069350000000     0.193520000000     0.996960000000     0.342808   
C49      C      0.937690000000     0.804180000000     0.643660000000     0.345077   
C50      C      0.878890000000     0.816270000000     0.709830000000     0.342324   
C51      C      0.873480000000     0.799210000000     0.594670000000     0.342404   
C52      C      0.866650000000     0.742250000000     0.681870000000     0.342089   
C53      C      0.732320000000     0.521130000000     0.786910000000     0.346382   
C54      C      0.786950000000     0.506810000000     0.717090000000     0.342628   
C55      C      0.803950000000     0.582830000000     0.746420000000     0.341333   
C56      C      0.800430000000     0.528150000000     0.831230000000     0.34357    
C57      C      0.188570000000     0.061360000000     0.139150000000     0.345422   
C58      C      0.177960000000     0.119620000000     0.203460000000     0.342963   
C59      C      0.253350000000     0.132910000000     0.174260000000     0.342187   
C60      C      0.198000000000     0.127960000000     0.088180000000     0.343322   
C61      C      0.479970000000     0.268400000000     0.278210000000     0.345165   
C62      C      0.489460000000     0.209240000000     0.214190000000     0.342892   
C63      C      0.468590000000     0.201210000000     0.328750000000     0.343293   
C64      C      0.414350000000     0.197860000000     0.241900000000     0.342418   
C65      C      0.857950000000     0.392620000000     0.471410000000     0.346528   
C66      C      0.842960000000     0.445750000000     0.543560000000     0.343463   
C67      C      0.919600000000     0.463550000000     0.513100000000     0.340791   
C68      C      0.864510000000     0.459390000000     0.427870000000     0.342489   
C69      C      0.144390000000     0.603230000000     0.617370000000     0.346165   
C70      C      0.157640000000     0.550720000000     0.542170000000     0.343365   
C71      C      0.136350000000     0.533260000000     0.657530000000     0.343828   
C72      C      0.081780000000     0.533580000000     0.577250000000     0.341111   
C73      C      0.117270000000     0.177650000000     0.375200000000     0.342949   
C74      C      0.063030000000     0.190410000000     0.447220000000     0.346532   
C75      C      0.132710000000     0.198750000000     0.490150000000     0.343839   
C76      C      0.134410000000     0.253270000000     0.408220000000     0.341475   
C77      C      0.272650000000     0.473920000000     0.306200000000     0.34492    
C78      C      0.214580000000     0.488020000000     0.372120000000     0.342324   
C79      C      0.210280000000     0.471140000000     0.256740000000     0.341881   
C80      C      0.200960000000     0.413540000000     0.345250000000     0.34153    
C81      C      0.448820000000     0.840190000000     0.042820000000     0.3442     
C82      C      0.396910000000     0.854770000000     0.118160000000     0.3466     
C83      C      0.466420000000     0.862340000000     0.158270000000     0.342809   
C84      C      0.467250000000     0.916150000000     0.075630000000     0.341226   
C85      C      0.553070000000     0.152290000000     0.045590000000     0.34398    
C86      C      0.605730000000     0.139110000000     0.970290000000     0.346569   
C87      C      0.535780000000     0.076650000000     0.012300000000     0.341441   
C88      C      0.535210000000     0.129850000000     0.930470000000     0.343782   
C89      C      0.812120000000     0.934300000000     0.953030000000     0.346442   
C90      C      0.822460000000     0.879320000000     0.880490000000     0.343387   
C91      C      0.801070000000     0.863460000000     0.996420000000     0.344242   
C92      C      0.747630000000     0.865100000000     0.915360000000     0.341506   
C93      C      0.526770000000     0.728650000000     0.802720000000     0.345542   
C94      C      0.510180000000     0.783230000000     0.871240000000     0.342632   
C95      C      0.586730000000     0.799220000000     0.846850000000     0.34116    
C96      C      0.531200000000     0.792770000000     0.757020000000     0.341921   
C97      C      0.161930000000     0.608990000000     0.044650000000     0.343106   
C98      C      0.153640000000     0.541940000000     0.109410000000     0.346376   
C99      C      0.139660000000     0.597060000000     0.159780000000     0.344      
C100     C      0.086930000000     0.545630000000     0.074530000000     0.342431   
C101     C      0.861850000000     0.458370000000     0.971980000000     0.346158   
C102     C      0.849420000000     0.389650000000     0.037240000000     0.342658   
C103     C      0.869910000000     0.399490000000     0.922390000000     0.344074   
C104     C      0.925690000000     0.450210000000     0.007390000000     0.34224    
C105     C      0.189740000000     0.125750000000     0.634710000000     0.346392   
C106     C      0.174740000000     0.059860000000     0.710970000000     0.344089   
C107     C      0.196650000000     0.063690000000     0.595320000000     0.34332    
C108     C      0.251060000000     0.117590000000     0.677410000000     0.341184   
C109     C      0.474690000000     0.200220000000     0.787340000000     0.3463     
C110     C      0.488490000000     0.265380000000     0.710850000000     0.344198   
C111     C      0.412600000000     0.207320000000     0.746110000000     0.341392   
C112     C      0.467360000000     0.262380000000     0.826700000000     0.343456   
C113     C      0.273920000000     0.795500000000     0.805920000000     0.346517   
C114     C      0.217870000000     0.728060000000     0.873380000000     0.342668   
C115     C      0.201770000000     0.787430000000     0.842100000000     0.3416     
C116     C      0.203400000000     0.735120000000     0.759150000000     0.344692   
C117     C      0.063900000000     0.871450000000     0.947290000000     0.345181   
C118     C      0.121880000000     0.941490000000     0.882230000000     0.34279    
C119     C      0.130090000000     0.930570000000     0.997160000000     0.342648   
C120     C      0.135730000000     0.880490000000     0.910120000000     0.342117   
C121     C      0.603330000000     0.454850000000     0.476650000000     0.344952   
C122     C      0.543280000000     0.384770000000     0.540570000000     0.342784   
C123     C      0.532270000000     0.447420000000     0.512140000000     0.342285   
C124     C      0.538080000000     0.396900000000     0.424990000000     0.342485   
C125     C      0.455970000000     0.605240000000     0.543180000000     0.342778   
C126     C      0.399680000000     0.538620000000     0.611430000000     0.346536   
C127     C      0.471470000000     0.545680000000     0.576130000000     0.341744   
C128     C      0.470260000000     0.598410000000     0.658470000000     0.344403   
C129     C      0.940300000000     0.123500000000     0.144480000000     0.346352   
C130     C      0.881340000000     0.055270000000     0.209590000000     0.343309   
C131     C      0.868520000000     0.116890000000     0.179260000000     0.342294   
C132     C      0.871830000000     0.065770000000     0.094550000000     0.343651   
C133     C      0.788480000000     0.271290000000     0.209780000000     0.342822   
C134     C      0.730790000000     0.204080000000     0.276200000000     0.34658    
C135     C      0.803170000000     0.211340000000     0.242730000000     0.341616   
C136     C      0.800670000000     0.263240000000     0.325240000000     0.34448    
C137     C      0.815330000000     0.870130000000     0.449360000000     0.346446   
C138     C      0.824760000000     0.935670000000     0.380130000000     0.342868   
C139     C      0.749270000000     0.873940000000     0.411780000000     0.34148    
C140     C      0.800910000000     0.927340000000     0.494620000000     0.344964   
C141     C      0.526870000000     0.792320000000     0.301360000000     0.345854   
C142     C      0.512030000000     0.722400000000     0.369210000000     0.342728   
C143     C      0.531980000000     0.732070000000     0.254530000000     0.343139   
C144     C      0.588320000000     0.782250000000     0.341200000000     0.341678   
C145     C      0.718770000000     0.849270000000     0.367810000000    -0.0277957  
C146     C      0.618710000000     0.805250000000     0.386220000000    -0.0278233  
C147     C      0.631330000000     0.798400000000     0.330140000000    -0.0279234  
C148     C      0.652110000000     0.813280000000     0.352490000000     0.018685   
C149     C      0.644910000000     0.817190000000     0.384460000000     0.0185949  
C150     C      0.661330000000     0.831100000000     0.410010000000    -0.0653865  
C151     C      0.706150000000     0.856150000000     0.423870000000    -0.0278392  
C152     C      0.676140000000     0.823060000000     0.344270000000    -0.0653808  
C153     C      0.685360000000     0.840840000000     0.401810000000     0.0186475  
C154     C      0.692560000000     0.836930000000     0.369840000000     0.0186466  
C155     C      0.861960000000     0.013080000000     0.225430000000    -0.0279092  
C156     C      0.853050000000     0.976970000000     0.362820000000    -0.0279339  
C157     C      0.832290000000     0.947700000000     0.317890000000    -0.0279428  
C158     C      0.845950000000     0.971470000000     0.302420000000     0.018766   
C159     C      0.857860000000     0.988170000000     0.328010000000     0.0183701  
C160     C      0.871030000000     0.012150000000     0.320090000000    -0.0650526  
C161     C      0.883270000000     0.042460000000     0.270010000000    -0.027687   
C162     C      0.846400000000     0.977820000000     0.267540000000    -0.0655223  
C163     C      0.871700000000     0.018490000000     0.285110000000     0.0183667  
C164     C      0.859640000000     0.001770000000     0.259610000000     0.0187787  
C165     C      0.860220000000     0.139240000000     0.223720000000    -0.0278251  
C166     C      0.811680000000     0.189090000000     0.198510000000    -0.0278839  
C167     C      0.826530000000     0.192270000000     0.257420000000    -0.0278178  
C168     C      0.832510000000     0.177450000000     0.235690000000     0.0185715  
C169     C      0.824050000000     0.175660000000     0.202100000000     0.0187505  
C170     C      0.827300000000     0.162410000000     0.176610000000    -0.0654345  
C171     C      0.845420000000     0.136210000000     0.164810000000    -0.0278792  
C172     C      0.844680000000     0.166050000000     0.245680000000    -0.06518    
C173     C      0.839490000000     0.151030000000     0.186580000000     0.0187672  
C174     C      0.847930000000     0.152780000000     0.220180000000     0.0185184  
C175     C      0.468580000000     0.646120000000     0.525310000000    -0.0277724  
C176     C      0.488510000000     0.680330000000     0.385920000000    -0.0279483  
C177     C      0.498370000000     0.710090000000     0.430250000000    -0.0278808  
C178     C      0.486810000000     0.686360000000     0.446110000000     0.0184204  
C179     C      0.481100000000     0.669390000000     0.420780000000     0.0185913  
C180     C      0.471170000000     0.645650000000     0.429370000000    -0.0654172  
C181     C      0.458130000000     0.616360000000     0.480770000000    -0.0279377  
C182     C      0.483060000000     0.680510000000     0.481530000000    -0.0651411  
C183     C      0.467150000000     0.639770000000     0.464720000000     0.0187216  
C184     C      0.473020000000     0.656740000000     0.490110000000     0.0183418  
C185     C      0.495010000000     0.526660000000     0.590050000000    -0.0278036  
C186     C      0.508930000000     0.466620000000     0.498650000000    -0.027871   
C187     C      0.525660000000     0.471030000000     0.556510000000    -0.0278171  
C188     C      0.513730000000     0.484920000000     0.553200000000     0.0184714  
C189     C      0.504180000000     0.482380000000     0.520210000000     0.0188323  
C190     C      0.492150000000     0.493950000000     0.510490000000    -0.0654615  
C191     C      0.478240000000     0.522060000000     0.532180000000    -0.0279684  
C192     C      0.511800000000     0.499230000000     0.578330000000    -0.0651302  
C193     C      0.490200000000     0.508240000000     0.535600000000     0.0187969  
C194     C      0.499770000000     0.510830000000     0.568600000000     0.0184662  
C195     C      0.143710000000     0.858360000000     0.864860000000    -0.0278457  
C196     C      0.193850000000     0.809760000000     0.886950000000    -0.0278858  
C197     C      0.177690000000     0.805960000000     0.828810000000    -0.0277634  
C198     C      0.171950000000     0.820780000000     0.850980000000     0.0184806  
C199     C      0.181160000000     0.822920000000     0.884140000000     0.0187539  
C200     C      0.178230000000     0.836200000000     0.909940000000    -0.0654257  
C201     C      0.159820000000     0.862000000000     0.923000000000    -0.0278335  
C202     C      0.159300000000     0.831850000000     0.841770000000    -0.0652092  
C203     C      0.165590000000     0.847260000000     0.900740000000     0.0187339  
C204     C      0.156390000000     0.845160000000     0.867580000000     0.0185384  
C205     C      0.548710000000     0.370530000000     0.598120000000    -0.0275604  
C206     C      0.491750000000     0.276940000000     0.648650000000    -0.0281443  
C207     C      0.520310000000     0.304550000000     0.690070000000    -0.0278414  
C208     C      0.522920000000     0.316020000000     0.655820000000     0.0181194  
C209     C      0.506570000000     0.300240000000     0.632270000000     0.0189093  
C210     C      0.504240000000     0.307220000000     0.598830000000    -0.0656592  
C211     C      0.519630000000     0.342760000000     0.557350000000    -0.0279887  
C212     C      0.537980000000     0.339670000000     0.647090000000    -0.0648086  
C213     C      0.519350000000     0.330800000000     0.590060000000     0.0188773  
C214     C      0.535840000000     0.346610000000     0.613450000000     0.0181577  
C215     C      0.143130000000     0.983630000000     0.865780000000    -0.0278734  
C216     C      0.143950000000     0.020030000000     0.730980000000    -0.0278445  
C217     C      0.169960000000     0.048760000000     0.773520000000    -0.0280667  
C218     C      0.155800000000     0.025330000000     0.789830000000     0.0188216  
C219     C      0.140900000000     0.008920000000     0.765620000000     0.0181364  
C220     C      0.126850000000     0.985100000000     0.774240000000    -0.0648529  
C221     C      0.116580000000     0.954740000000     0.823800000000    -0.0276327  
C222     C      0.157620000000     0.018850000000     0.823860000000    -0.065559   
C223     C      0.128460000000     0.978660000000     0.808450000000     0.0182189  
C224     C      0.143500000000     0.995100000000     0.832510000000     0.018784   
C225     C      0.380890000000     0.176940000000     0.708620000000    -0.0278844  
C226     C      0.282670000000     0.147560000000     0.715480000000    -0.0278377  
C227     C      0.293120000000     0.127760000000     0.671800000000    -0.027737   
C228     C      0.314450000000     0.145160000000     0.691180000000     0.0186188  
C229     C      0.308490000000     0.156450000000     0.716080000000     0.0185719  
C230     C      0.325640000000     0.173820000000     0.737710000000    -0.0653299  
C231     C      0.370450000000     0.196770000000     0.752280000000    -0.0278288  
C232     C      0.337910000000     0.150600000000     0.686520000000    -0.0654973  
C233     C      0.349100000000     0.179260000000     0.733060000000     0.0185896  
C234     C      0.355060000000     0.167960000000     0.708160000000     0.0186743  
C235     C      0.836330000000     0.377380000000     0.098460000000    -0.0279085  
C236     C      0.790910000000     0.282940000000     0.147560000000    -0.0278305  
C237     C      0.803240000000     0.312720000000     0.192550000000    -0.0279216  
C238     C      0.808220000000     0.323590000000     0.157510000000     0.0185072  
C239     C      0.801270000000     0.306620000000     0.131860000000     0.018589   
C240     C      0.805530000000     0.312650000000     0.096560000000    -0.0652888  
C241     C      0.824580000000     0.347600000000     0.053590000000    -0.0278254  
C242     C      0.819620000000     0.347530000000     0.149300000000    -0.0652879  
C243     C      0.816840000000     0.336570000000     0.088340000000     0.0185162  
C244     C      0.823620000000     0.353540000000     0.113970000000     0.0185953  
C245     C      0.204940000000     0.686940000000     0.890130000000    -0.0279708  
C246     C      0.185080000000     0.651240000000     0.028720000000    -0.0277771  
C247     C      0.174700000000     0.621910000000     0.983510000000    -0.027767   
C248     C      0.186380000000     0.645820000000     0.968260000000     0.0185127  
C249     C      0.192370000000     0.662540000000     0.994080000000     0.0185267  
C250     C      0.202570000000     0.686410000000     0.986130000000    -0.0653368  
C251     C      0.215820000000     0.716290000000     0.935460000000    -0.0277559  
C252     C      0.190110000000     0.652050000000     0.932990000000    -0.0651827  
C253     C      0.206540000000     0.692660000000     0.950890000000     0.0185969  
C254     C      0.200420000000     0.675940000000     0.925040000000     0.0185139  
C255     C      0.056270000000     0.523260000000     0.029460000000    -0.0278846  
C256     C      0.956420000000     0.471450000000     0.052770000000    -0.0276388  
C257     C      0.968760000000     0.469810000000     0.993660000000    -0.0281536  
C258     C      0.989640000000     0.484300000000     0.016060000000     0.0193999  
C259     C      0.982590000000     0.485210000000     0.049760000000     0.0183264  
C260     C      0.999090000000     0.498110000000     0.075800000000    -0.0646352  
C261     C      0.043880000000     0.524780000000     0.088570000000    -0.0274773  
C262     C      0.013590000000     0.496260000000     0.006500000000    -0.0660156  
C263     C      0.023050000000     0.510040000000     0.066260000000     0.0179876  
C264     C      0.030100000000     0.509160000000     0.032560000000     0.0189772  
C265     C      0.536350000000     0.702210000000     0.769680000000    -0.0280676  
C266     C      0.466130000000     0.613850000000     0.715430000000    -0.02796    
C267     C      0.505200000000     0.630120000000     0.689620000000    -0.0277771  
C268     C      0.505850000000     0.644590000000     0.719580000000     0.0186155  
C269     C      0.483540000000     0.635330000000     0.734280000000     0.0185843  
C270     C      0.478930000000     0.647320000000     0.760340000000    -0.065021   
C271     C      0.497240000000     0.686140000000     0.795280000000    -0.0277501  
C272     C      0.524790000000     0.666310000000     0.730250000000    -0.0652279  
C273     C      0.497960000000     0.668900000000     0.771340000000     0.0186075  
C274     C      0.520280000000     0.678100000000     0.756710000000     0.0187291  
C275     C      0.804430000000     0.963290000000     0.982240000000    -0.0279412  
C276     C      0.877140000000     0.049190000000     0.039450000000    -0.0278634  
C277     C      0.837360000000     0.036560000000     0.059850000000    -0.027992   
C278     C      0.836730000000     0.021200000000     0.031250000000     0.0187951  
C279     C      0.859440000000     0.028410000000     0.019550000000     0.0184315  
C280     C      0.863770000000     0.015090000000     0.995480000000    -0.0649478  
C281     C      0.844100000000     0.975920000000     0.961260000000    -0.0278016  
C282     C      0.817150000000     0.000260000000     0.019620000000    -0.0652538  
C283     C      0.844120000000     0.994330000000     0.983390000000     0.01857    
C284     C      0.821440000000     0.987120000000     0.995230000000     0.0187962  
C285     C      0.716960000000     0.862740000000     0.874690000000    -0.0279187  
C286     C      0.616960000000     0.803300000000     0.890040000000    -0.0277436  
C287     C      0.629580000000     0.828330000000     0.838850000000    -0.0280208  
C288     C      0.650330000000     0.832480000000     0.859860000000     0.0188613  
C289     C      0.643160000000     0.818180000000     0.889020000000     0.0183176  
C290     C      0.659640000000     0.818460000000     0.912590000000    -0.0650789  
C291     C      0.704540000000     0.837570000000     0.925730000000    -0.0277384  
C292     C      0.674330000000     0.847900000000     0.852680000000    -0.0655446  
C293     C      0.683660000000     0.833910000000     0.905410000000     0.0183883  
C294     C      0.690780000000     0.848250000000     0.876290000000     0.0188243  
C295     C      0.499530000000     0.126020000000     0.901200000000    -0.0278251  
C296     C      0.504620000000     0.187840000000     0.794030000000    -0.0277654  
C297     C      0.466280000000     0.165190000000     0.822120000000    -0.0278372  
C298     C      0.482680000000     0.157490000000     0.834360000000     0.0187724  
C299     C      0.504580000000     0.170400000000     0.818370000000     0.018643   
C300     C      0.523910000000     0.168210000000     0.828510000000    -0.0650303  
C301     C      0.537920000000     0.148540000000     0.873180000000    -0.0280102  
C302     C      0.478890000000     0.141720000000     0.861320000000    -0.0652893  
C303     C      0.520030000000     0.152160000000     0.855130000000     0.0185876  
C304     C      0.498120000000     0.139280000000     0.871110000000     0.0186631  
C305     C      0.463000000000     0.842690000000     0.214900000000    -0.0280498  
C306     C      0.535440000000     0.828440000000     0.269450000000    -0.0279537  
C307     C      0.496480000000     0.804080000000     0.294940000000    -0.0279261  
C308     C      0.496500000000     0.821740000000     0.271130000000     0.0187493  
C309     C      0.518740000000     0.835620000000     0.256550000000     0.0186211  
C310     C      0.522630000000     0.851680000000     0.229960000000    -0.0650913  
C311     C      0.501910000000     0.866810000000     0.189100000000    -0.0277429  
C312     C      0.476960000000     0.823260000000     0.259990000000    -0.0650991  
C313     C      0.503160000000     0.853410000000     0.219140000000     0.0185522  
C314     C      0.480940000000     0.839610000000     0.233820000000     0.0187003  
C315     C      0.458020000000     0.809650000000     0.023850000000    -0.0278284  
C316     C      0.488310000000     0.803500000000     0.887100000000    -0.0280081  
C317     C      0.492370000000     0.778950000000     0.930270000000    -0.0277743  
C318     C      0.480770000000     0.791200000000     0.945680000000     0.0182519  
C319     C      0.478400000000     0.805120000000     0.920960000000     0.0187462  
C320     C      0.469210000000     0.819530000000     0.929500000000    -0.0655862  
C321     C      0.453710000000     0.833810000000     0.980260000000    -0.0280521  
C322     C      0.474140000000     0.791030000000     0.980440000000    -0.0648994  
C323     C      0.462340000000     0.819150000000     0.964120000000     0.0188426  
C324     C      0.464770000000     0.805330000000     0.988940000000     0.018173   
C325     C      0.498760000000     0.958100000000     0.082300000000    -0.0279081  
C326     C      0.504570000000     0.034650000000     0.005330000000    -0.0277661  
C327     C      0.534930000000     0.045420000000     0.049500000000    -0.0278921  
C328     C      0.518670000000     0.019650000000     0.048860000000     0.0186406  
C329     C      0.501360000000     0.013510000000     0.023670000000     0.0185836  
C330     C      0.483900000000     0.990070000000     0.017890000000    -0.0653287  
C331     C      0.468410000000     0.947370000000     0.038120000000    -0.0278594  
C332     C      0.519500000000     0.002700000000     0.069680000000    -0.0654027  
C333     C      0.484730000000     0.973120000000     0.038690000000     0.0186128  
C334     C      0.502040000000     0.979250000000     0.063890000000     0.0186213  
C335     C      0.187370000000     0.535820000000     0.121980000000    -0.028006   
C336     C      0.178620000000     0.464850000000     0.214840000000    -0.0278574  
C337     C      0.218770000000     0.496960000000     0.205220000000    -0.0280773  
C338     C      0.202040000000     0.498900000000     0.181440000000     0.0185667  
C339     C      0.179100000000     0.480620000000     0.187000000000     0.0186133  
C340     C      0.159690000000     0.480170000000     0.170920000000    -0.0650907  
C341     C      0.147180000000     0.503970000000     0.132190000000    -0.0280714  
C342     C      0.206820000000     0.517640000000     0.159340000000    -0.0651546  
C343     C      0.164500000000     0.498750000000     0.148470000000     0.0187185  
C344     C      0.187440000000     0.516960000000     0.142750000000     0.0187022  
C345     C      0.160050000000     0.138330000000     0.626830000000    -0.0277293  
C346     C      0.167680000000     0.201970000000     0.520850000000    -0.0276592  
C347     C      0.128690000000     0.179040000000     0.546940000000    -0.0280127  
C348     C      0.146140000000     0.175090000000     0.565650000000     0.0186645  
C349     C      0.168400000000     0.188180000000     0.550760000000     0.0186489  
C350     C      0.187340000000     0.185480000000     0.561230000000    -0.0652382  
C351     C      0.198990000000     0.161280000000     0.600570000000    -0.0278495  
C352     C      0.141620000000     0.158590000000     0.591840000000    -0.0649993  
C353     C      0.182910000000     0.169230000000     0.587750000000     0.0187414  
C354     C      0.160670000000     0.156140000000     0.602680000000     0.018668   
C355     C      0.173130000000     0.371100000000     0.334150000000    -0.0279541  
C356     C      0.161890000000     0.295760000000     0.420120000000    -0.027684   
C357     C      0.138940000000     0.284080000000     0.366610000000    -0.0279557  
C358     C      0.153100000000     0.309990000000     0.369410000000     0.0188235  
C359     C      0.166160000000     0.316670000000     0.399950000000     0.0184166  
C360     C      0.180830000000     0.340370000000     0.408700000000    -0.0651487  
C361     C      0.195900000000     0.382920000000     0.387820000000    -0.0278776  
C362     C      0.154020000000     0.326580000000     0.345860000000    -0.0654827  
C363     C      0.181720000000     0.356980000000     0.385160000000     0.0184795  
C364     C      0.168700000000     0.350260000000     0.354580000000     0.0188077  
C365     C      0.174750000000     0.645540000000     0.624610000000    -0.0277466  
C366     C      0.168210000000     0.703520000000     0.728410000000    -0.0278974  
C367     C      0.207200000000     0.718860000000     0.702700000000    -0.0280116  
C368     C      0.189520000000     0.697270000000     0.684330000000     0.0185217  
C369     C      0.167280000000     0.688530000000     0.699020000000     0.0187805  
C370     C      0.148090000000     0.666830000000     0.688900000000    -0.0653496  
C371     C      0.135850000000     0.630310000000     0.650610000000    -0.0278791  
C372     C      0.193780000000     0.684770000000     0.658690000000    -0.0649322  
C373     C      0.152270000000     0.654490000000     0.662940000000     0.0187819  
C374     C      0.174500000000     0.663210000000     0.648190000000     0.0185843  
C375     C      0.191190000000     0.506610000000     0.388410000000    -0.0279021  
C376     C      0.189340000000     0.543100000000     0.522160000000    -0.0277811  
C377     C      0.161500000000     0.542670000000     0.480000000000    -0.0282058  
C378     C      0.176600000000     0.534520000000     0.463820000000     0.0189441  
C379     C      0.192540000000     0.534800000000     0.487780000000     0.018073   
C380     C      0.207840000000     0.526520000000     0.479190000000    -0.06487    
C381     C      0.219550000000     0.507390000000     0.429920000000    -0.0276898  
C382     C      0.174940000000     0.525840000000     0.430060000000    -0.0655966  
C383     C      0.206360000000     0.518070000000     0.445230000000     0.0181922  
C384     C      0.190290000000     0.517690000000     0.421430000000     0.0187841  
C385     C      0.867020000000     0.365680000000     0.438800000000    -0.0279591  
C386     C      0.795990000000     0.278700000000     0.381860000000    -0.0280075  
C387     C      0.835430000000     0.294050000000     0.357790000000    -0.0278054  
C388     C      0.835990000000     0.308510000000     0.387700000000     0.018692   
C389     C      0.813480000000     0.299770000000     0.401430000000     0.0185686  
C390     C      0.808910000000     0.311900000000     0.427300000000    -0.065018   
C391     C      0.827630000000     0.350450000000     0.462970000000    -0.02769    
C392     C      0.855150000000     0.329850000000     0.399090000000    -0.0652515  
C393     C      0.828150000000     0.333090000000     0.439060000000     0.0185974  
C394     C      0.850650000000     0.341800000000     0.425310000000     0.0187721  
C395     C      0.039240000000     0.503680000000     0.586490000000    -0.027497   
C396     C      0.962010000000     0.494180000000     0.504910000000    -0.0281024  
C397     C      0.951020000000     0.466790000000     0.553090000000    -0.0277642  
C398     C      0.977060000000     0.482740000000     0.551930000000     0.0182049  
C399     C      0.983330000000     0.498380000000     0.524480000000     0.0193344  
C400     C      0.007050000000     0.515140000000     0.517670000000    -0.0661712  
C401     C      0.050190000000     0.531170000000     0.538450000000    -0.0281211  
C402     C      0.994160000000     0.482960000000     0.574070000000    -0.0645129  
C403     C      0.024140000000     0.515380000000     0.539850000000     0.019089   
C404     C      0.017880000000     0.499710000000     0.567270000000     0.0178304  
C405     C      0.513240000000     0.308920000000     0.289510000000    -0.0280382  
C406     C      0.505270000000     0.370170000000     0.385450000000    -0.0279747  
C407     C      0.545480000000     0.379920000000     0.372030000000    -0.0279543  
C408     C      0.528300000000     0.360570000000     0.349400000000     0.0184268  
C409     C      0.505340000000     0.354980000000     0.357100000000     0.0186315  
C410     C      0.485750000000     0.335400000000     0.342240000000    -0.0651193  
C411     C      0.473040000000     0.299050000000     0.303260000000    -0.0281593  
C412     C      0.532910000000     0.346930000000     0.326360000000    -0.0651397  
C413     C      0.490370000000     0.321960000000     0.318840000000     0.0187229  
C414     C      0.513330000000     0.327590000000     0.311050000000     0.0186797  
C415     C      0.507740000000     0.213050000000     0.155640000000    -0.0276221  
C416     C      0.546270000000     0.157590000000     0.107820000000    -0.0280445  
C417     C      0.544230000000     0.183110000000     0.064280000000    -0.0277472  
C418     C      0.536300000000     0.186820000000     0.098670000000     0.0181552  
C419     C      0.537450000000     0.172220000000     0.123460000000     0.0188512  
C420     C      0.529370000000     0.171230000000     0.157520000000    -0.0655968  
C421     C      0.509580000000     0.187170000000     0.198760000000    -0.0280149  
C422     C      0.527080000000     0.201320000000     0.106640000000    -0.0648729  
C423     C      0.520290000000     0.185820000000     0.165530000000     0.0188109  
C424     C      0.519210000000     0.200510000000     0.140840000000     0.0182391  
C425     C      0.155940000000     0.020200000000     0.130070000000    -0.0279732  
C426     C      0.163620000000     0.958580000000     0.034570000000    -0.0279753  
C427     C      0.123460000000     0.947640000000     0.050690000000    -0.0279862  
C428     C      0.140870000000     0.967740000000     0.071980000000     0.0184261  
C429     C      0.163800000000     0.974000000000     0.062750000000     0.0187007  
C430     C      0.183410000000     0.994270000000     0.076070000000    -0.0651555  
C431     C      0.196070000000     0.031180000000     0.113710000000    -0.0280794  
C432     C      0.136320000000     0.981400000000     0.095070000000    -0.0650433  
C433     C      0.178870000000     0.007740000000     0.099550000000     0.018699   
C434     C      0.155960000000     0.001460000000     0.108840000000     0.018619   
C435     C      0.121660000000     0.170470000000     0.312740000000    -0.0279455  
C436     C      0.162450000000     0.117310000000     0.263610000000    -0.0276012  
C437     C      0.155980000000     0.139790000000     0.219540000000    -0.0280027  
C438     C      0.146920000000     0.142120000000     0.253750000000     0.0186909  
C439     C      0.150670000000     0.129380000000     0.278960000000     0.0182635  
C440     C      0.144870000000     0.129940000000     0.313950000000    -0.0649474  
C441     C      0.128570000000     0.148480000000     0.357130000000    -0.0278944  
C442     C      0.137030000000     0.155970000000     0.262020000000    -0.065421   
C443     C      0.134870000000     0.143710000000     0.322200000000     0.0183149  
C444     C      0.130990000000     0.156320000000     0.296910000000     0.0186783  
C445     C      0.371260000000     0.175570000000     0.255590000000    -0.0278947  
C446     C      0.296460000000     0.155770000000     0.160480000000    -0.0277743  
C447     C      0.283970000000     0.141960000000     0.219610000000    -0.0278256  
C448     C      0.310130000000     0.154110000000     0.216600000000     0.0187349  
C449     C      0.317270000000     0.161990000000     0.182890000000     0.018557   
C450     C      0.341240000000     0.173860000000     0.173380000000    -0.065207   
C451     C      0.383850000000     0.189420000000     0.196500000000    -0.027673   
C452     C      0.326550000000     0.157640000000     0.242690000000    -0.0654168  
C453     C      0.357670000000     0.177400000000     0.199480000000     0.0185112  
C454     C      0.350520000000     0.169510000000     0.233180000000     0.018781   
C455     C      0.795750000000     0.506330000000     0.886150000000    -0.0279346  
C456     C      0.869440000000     0.495450000000     0.944190000000    -0.0279322  
C457     C      0.829880000000     0.467890000000     0.965160000000    -0.0278291  
C458     C      0.829580000000     0.486080000000     0.942970000000     0.0186861  
C459     C      0.852180000000     0.501820000000     0.931010000000     0.0187197  
C460     C      0.856140000000     0.518890000000     0.906100000000    -0.065156   
C461     C      0.835330000000     0.533870000000     0.865180000000    -0.0277008  
C462     C      0.809720000000     0.486580000000     0.930660000000    -0.065046   
C463     C      0.836320000000     0.519620000000     0.894180000000     0.0186609  
C464     C      0.813730000000     0.503900000000     0.906160000000     0.0186294  
C465     C      0.832890000000     0.447050000000     0.605780000000    -0.0280135  
C466     C      0.785390000000     0.493640000000     0.655780000000    -0.0278079  
C467     C      0.803010000000     0.481240000000     0.700350000000    -0.0279426  
C468     C      0.805890000000     0.473360000000     0.665520000000     0.0185921  
C469     C      0.795930000000     0.480500000000     0.640050000000     0.0184309  
C470     C      0.797780000000     0.476520000000     0.604660000000    -0.0650527  
C471     C      0.815730000000     0.459860000000     0.561080000000    -0.0279287  
C472     C      0.818130000000     0.461750000000     0.657060000000    -0.0653287  
C473     C      0.809900000000     0.464770000000     0.596220000000     0.0183581  
C474     C      0.819740000000     0.457530000000     0.621720000000     0.0186694  
C475     C      0.808540000000     0.832620000000     0.474590000000    -0.0279599  
C476     C      0.881000000000     0.824230000000     0.542440000000    -0.028047   
C477     C      0.840810000000     0.793180000000     0.555060000000    -0.0279929  
C478     C      0.840890000000     0.808760000000     0.527260000000     0.0187385  
C479     C      0.863840000000     0.826440000000     0.519970000000     0.0185669  
C480     C      0.868440000000     0.844930000000     0.497450000000    -0.0651715  
C481     C      0.848730000000     0.863350000000     0.461180000000    -0.0278623  
C482     C      0.821300000000     0.808720000000     0.512640000000    -0.0651742  
C483     C      0.848850000000     0.844650000000     0.482310000000     0.0186986  
C484     C      0.825900000000     0.827060000000     0.489810000000     0.018743   
C485     C      0.883740000000     0.835340000000     0.767870000000    -0.0276049  
C486     C      0.825710000000     0.870480000000     0.818520000000    -0.0279706  
C487     C      0.853680000000     0.870970000000     0.860490000000    -0.0278471  
C488     C      0.856710000000     0.862530000000     0.826120000000     0.01813    
C489     C      0.840690000000     0.862220000000     0.802270000000     0.0189217  
C490     C      0.838960000000     0.853550000000     0.768490000000    -0.0656373  
C491     C      0.855220000000     0.834470000000     0.726600000000    -0.0279871  
C492     C      0.872030000000     0.854320000000     0.817370000000    -0.0647869  
C493     C      0.854310000000     0.845440000000     0.759720000000     0.0189059  
C494     C      0.870480000000     0.845870000000     0.783390000000     0.0181315  
C495     C      0.810070000000     0.613090000000     0.702580000000    -0.0277464  
C496     C      0.860980000000     0.712020000000     0.725550000000    -0.0278179  
C497     C      0.841540000000     0.699570000000     0.669300000000    -0.027884   
C498     C      0.837200000000     0.679010000000     0.690390000000     0.018736   
C499     C      0.848290000000     0.686090000000     0.722460000000     0.0186106  
C500     C      0.847010000000     0.669830000000     0.747000000000    -0.065319   
C501     C      0.829570000000     0.625500000000     0.758790000000    -0.0280033  
C502     C      0.824180000000     0.655270000000     0.681070000000    -0.0653528  
C503     C      0.834010000000     0.646090000000     0.737670000000     0.0187127  
C504     C      0.822890000000     0.639010000000     0.705610000000     0.0186225  
C505     C      0.981210000000     0.131440000000     0.134050000000    -0.0273995  
C506     C      0.043090000000     0.199960000000     0.036510000000    -0.0280806  
C507     C      0.052550000000     0.169910000000     0.050820000000    -0.0277499  
C508     C      0.033310000000     0.167880000000     0.073580000000     0.0181058  
C509     C      0.027870000000     0.185000000000     0.065340000000     0.0190334  
C510     C      0.008250000000     0.184910000000     0.080040000000    -0.0659009  
C511     C      0.971520000000     0.161250000000     0.119200000000    -0.0284588  
C512     C      0.019510000000     0.149830000000     0.097080000000    -0.0645746  
C513     C      0.994640000000     0.167040000000     0.103880000000     0.0198976  
C514     C      0.000150000000     0.150000000000     0.112260000000     0.0176478  
C515     C      0.164890000000     0.193890000000     0.970730000000    -0.0280309  
C516     C      0.175410000000     0.121880000000     0.033360000000    -0.0280455  
C517     C      0.204260000000     0.161530000000     0.051290000000    -0.0278607  
C518     C      0.189510000000     0.161890000000     0.022280000000     0.0186281  
C519     C      0.173050000000     0.139250000000     0.012030000000     0.018613   
C520     C      0.155140000000     0.134830000000     0.988070000000    -0.0651413  
C521     C      0.136100000000     0.154270000000     0.952640000000    -0.0279551  
C522     C      0.188920000000     0.181320000000     0.009140000000    -0.065119   
C523     C      0.154780000000     0.154300000000     0.974500000000     0.0186994  
C524     C      0.171230000000     0.176930000000     0.984780000000     0.01866    
C525     C      0.283980000000     0.488660000000     0.697480000000    -0.0278625  
C526     C      0.368870000000     0.500910000000     0.637360000000    -0.0279919  
C527     C      0.358240000000     0.529660000000     0.619980000000    -0.0278066  
C528     C      0.339000000000     0.510740000000     0.640920000000     0.0186789  
C529     C      0.345050000000     0.494290000000     0.650730000000     0.0187487  
C530     C      0.331030000000     0.476150000000     0.673960000000    -0.0651162  
C531     C      0.294380000000     0.459650000000     0.714260000000    -0.0278758  
C532     C      0.318670000000     0.510000000000     0.654000000000    -0.0650538  
C533     C      0.310480000000     0.475170000000     0.686550000000     0.0187135  
C534     C      0.304490000000     0.491680000000     0.676890000000     0.0185512  
C535     C      0.156220000000     0.535740000000     0.713830000000    -0.0279728  
C536     C      0.169000000000     0.462460000000     0.766060000000    -0.0280208  
C537     C      0.194090000000     0.500660000000     0.792370000000    -0.0279543  
C538     C      0.176490000000     0.501250000000     0.768750000000     0.0187475  
C539     C      0.162200000000     0.479440000000     0.753690000000     0.0186774  
C540     C      0.146120000000     0.476150000000     0.727180000000    -0.0651619  
C541     C      0.131430000000     0.497590000000     0.687150000000    -0.0276146  
C542     C      0.175370000000     0.520930000000     0.758210000000    -0.0651502  
C543     C      0.144790000000     0.495760000000     0.716950000000     0.0184879  
C544     C      0.158990000000     0.517550000000     0.732120000000     0.0186733  
C545     C      0.139330000000     0.291880000000     0.920870000000    -0.0278747  
C546     C      0.194580000000     0.365290000000     0.824430000000    -0.0277077  
C547     C      0.191920000000     0.378170000000     0.882640000000    -0.0277661  
C548     C      0.178470000000     0.352210000000     0.880450000000     0.018666   
C549     C      0.179970000000     0.344850000000     0.847250000000     0.0186026  
C550     C      0.168490000000     0.321010000000     0.838510000000    -0.0652474  
C551     C      0.141860000000     0.278960000000     0.862620000000    -0.0277954  
C552     C      0.165450000000     0.336130000000     0.906790000000    -0.0654107  
C553     C      0.155450000000     0.304930000000     0.864850000000     0.0185847  
C554     C      0.153990000000     0.312290000000     0.898060000000     0.0187555  
C555     C      0.648050000000     0.169870000000     0.961480000000    -0.0278326  
C556     C      0.703990000000     0.165540000000     0.851460000000    -0.0278356  
C557     C      0.719290000000     0.204010000000     0.877560000000    -0.0279119  
C558     C      0.698420000000     0.186080000000     0.897220000000     0.0185214  
C559     C      0.689740000000     0.164120000000     0.882330000000     0.0186814  
C560     C      0.668590000000     0.144680000000     0.893840000000    -0.0652154  
C561     C      0.633000000000     0.131470000000     0.935320000000    -0.0278894  
C562     C      0.686390000000     0.189770000000     0.924380000000    -0.0649894  
C563     C      0.656760000000     0.148300000000     0.921330000000     0.0187895  
C564     C      0.665390000000     0.170240000000     0.936210000000     0.0186038  
C565     C      0.833220000000     0.298370000000     0.807110000000    -0.0278322  
C566     C      0.848140000000     0.383490000000     0.866770000000    -0.0279339  
C567     C      0.874380000000     0.370250000000     0.887620000000    -0.0277723  
C568     C      0.859730000000     0.355430000000     0.858270000000     0.0187103  
C569     C      0.844780000000     0.363000000000     0.846310000000     0.0185746  
C570     C      0.827240000000     0.350220000000     0.821410000000    -0.0650851  
C571     C      0.807150000000     0.311680000000     0.785750000000    -0.027822   
C572     C      0.857910000000     0.334640000000     0.846070000000    -0.0651412  
C573     C      0.825690000000     0.329620000000     0.808770000000     0.0187162  
C574     C      0.840600000000     0.322030000000     0.820850000000     0.0187277  
C575     C      0.963010000000     0.163510000000     0.562420000000    -0.0275279  
C576     C      0.020720000000     0.159390000000     0.455010000000    -0.0278841  
C577     C      0.034940000000     0.197920000000     0.480230000000    -0.0277827  
C578     C      0.011100000000     0.180950000000     0.493840000000     0.0182338  
C579     C      0.002940000000     0.158950000000     0.479450000000     0.018514   
C580     C      0.981980000000     0.139310000000     0.491140000000    -0.0647742  
C581     C      0.948510000000     0.124970000000     0.537020000000    -0.0279391  
C582     C      0.998830000000     0.184520000000     0.520750000000    -0.0642206  
C583     C      0.969500000000     0.142960000000     0.517670000000     0.0186874  
C584     C      0.977730000000     0.164960000000     0.532130000000     0.0183698  
C585     C      0.795410000000     0.957680000000     0.524190000000    -0.0278585  
C586     C      0.857100000000     0.016630000000     0.631010000000    -0.0276805  
C587     C      0.833690000000     0.030780000000     0.602440000000    -0.0279264  
C588     C      0.826200000000     0.006660000000     0.590790000000     0.0188553  
C589     C      0.839560000000     0.998550000000     0.607040000000     0.0185515  
C590     C      0.837810000000     0.977330000000     0.597190000000    -0.0648602  
C591     C      0.818710000000     0.943340000000     0.552600000000    -0.0279874  
C592     C      0.810400000000     0.994040000000     0.563880000000    -0.0653026  
C593     C      0.821720000000     0.964520000000     0.570620000000     0.0185519  
C594     C      0.808390000000     0.972670000000     0.554400000000     0.0187452  
C595     C      0.975120000000     0.120320000000     0.730850000000    -0.0279273  
C596     C      0.013590000000     0.156650000000     0.864960000000    -0.0276465  
C597     C      0.041270000000     0.155610000000     0.823900000000    -0.0277926  
C598     C      0.017260000000     0.145110000000     0.808300000000     0.0186239  
C599     C      0.001500000000     0.145660000000     0.831820000000     0.0181702  
C600     C      0.977910000000     0.137740000000     0.822800000000    -0.0648931  
C601     C      0.947570000000     0.121110000000     0.772410000000    -0.0279184  
C602     C      0.010270000000     0.136680000000     0.774300000000    -0.0655643  
C603     C      0.970880000000     0.129110000000     0.788970000000     0.0185408  
C604     C      0.986610000000     0.128630000000     0.765330000000     0.018868   
C605     C      0.846930000000     0.130400000000     0.710890000000    -0.0277923  
C606     C      0.817080000000     0.197500000000     0.699190000000    -0.0277695  
C607     C      0.797750000000     0.168450000000     0.744870000000    -0.0278697  
C608     C      0.815030000000     0.164390000000     0.725780000000     0.0186392  
C609     C      0.826060000000     0.180960000000     0.699750000000     0.0185534  
C610     C      0.843320000000     0.180950000000     0.678200000000    -0.0653354  
C611     C      0.866350000000     0.159480000000     0.665290000000    -0.0276977  
C612     C      0.820610000000     0.146860000000     0.731700000000    -0.0654147  
C613     C      0.848900000000     0.163420000000     0.684120000000     0.0185532  
C614     C      0.837840000000     0.146840000000     0.710130000000     0.0186583  
C615     C      0.378040000000     0.871890000000     0.699790000000    -0.0279235  
C616     C      0.315660000000     0.805090000000     0.798770000000    -0.0277638  
C617     C      0.304320000000     0.832710000000     0.778280000000    -0.0279665  
C618     C      0.328210000000     0.839290000000     0.765280000000     0.0187769  
C619     C      0.334680000000     0.823490000000     0.776900000000     0.0186245  
C620     C      0.355090000000     0.824120000000     0.764450000000    -0.0650048  
C621     C      0.389280000000     0.844110000000     0.719880000000    -0.0280468  
C622     C      0.341830000000     0.856590000000     0.740710000000    -0.065173   
C623     C      0.368900000000     0.841640000000     0.740240000000     0.01854    
C624     C      0.362470000000     0.857480000000     0.728740000000     0.0187101  
C625     C      0.507030000000     0.786520000000     0.703880000000    -0.0280492  
C626     C      0.500150000000     0.859780000000     0.638060000000    -0.0279922  
C627     C      0.469190000000     0.820320000000     0.622960000000    -0.0279348  
C628     C      0.487760000000     0.819710000000     0.644230000000     0.0187126  
C629     C      0.505460000000     0.842250000000     0.652790000000     0.0186549  
C630     C      0.523510000000     0.846270000000     0.676270000000    -0.0651042  
C631     C      0.538200000000     0.825980000000     0.718630000000    -0.0278675  
C632     C      0.487090000000     0.799980000000     0.658800000000    -0.0651617  
C633     C      0.523070000000     0.826540000000     0.690370000000     0.0186173  
C634     C      0.505320000000     0.804010000000     0.681900000000     0.0186055  
C635     C      0.615640000000     0.155860000000     0.362810000000    -0.0278865  
C636     C      0.699690000000     0.166490000000     0.302010000000    -0.0278538  
C637     C      0.689370000000     0.195350000000     0.284080000000    -0.0279233  
C638     C      0.670100000000     0.176710000000     0.305340000000     0.0186609  
C639     C      0.675990000000     0.160210000000     0.315500000000     0.0187573  
C640     C      0.662060000000     0.142440000000     0.339290000000    -0.0652094  
C641     C      0.625910000000     0.126890000000     0.380380000000    -0.0280426  
C642     C      0.649980000000     0.176350000000     0.318530000000    -0.0649631  
C643     C      0.641720000000     0.141840000000     0.352020000000     0.0188132  
C644     C      0.635850000000     0.158360000000     0.341940000000     0.0184385  
C645     C      0.461820000000     0.167270000000     0.365130000000    -0.0279706  
C646     C      0.530430000000     0.173200000000     0.461690000000    -0.0279955  
C647     C      0.501460000000     0.133810000000     0.442920000000    -0.0279514  
C648     C      0.495060000000     0.150960000000     0.429900000000     0.0186574  
C649     C      0.511620000000     0.173460000000     0.440570000000     0.0187269  
C650     C      0.511280000000     0.193110000000     0.427810000000    -0.0650379  
C651     C      0.490920000000     0.206680000000     0.383650000000    -0.0280418  
C652     C      0.477250000000     0.146900000000     0.405970000000    -0.0650884  
C653     C      0.493250000000     0.189030000000     0.404270000000     0.0185517  
C654     C      0.476660000000     0.166520000000     0.393680000000     0.0186393  
C655     C      0.688610000000     0.206290000000     0.684300000000    -0.0278899  
C656     C      0.652180000000     0.174800000000     0.547770000000    -0.0279041  
C657     C      0.622920000000     0.170230000000     0.590790000000    -0.0276986  
C658     C      0.647050000000     0.182260000000     0.606200000000     0.0184099  
C659     C      0.663710000000     0.184920000000     0.581590000000     0.0187243  
C660     C      0.687670000000     0.194710000000     0.590170000000    -0.0654075  
C661     C      0.717770000000     0.211150000000     0.640920000000    -0.028052   
C662     C      0.653460000000     0.189170000000     0.640880000000    -0.0650434  
C663     C      0.694120000000     0.201840000000     0.624720000000     0.0187468  
C664     C      0.677480000000     0.199110000000     0.649420000000     0.0183585  
C665     C      0.526780000000     0.035040000000     0.490860000000    -0.0278477  
C666     C      0.478850000000     0.961530000000     0.590160000000    -0.0278186  
C667     C      0.477190000000     0.948660000000     0.530420000000    -0.0277145  
C668     C      0.490930000000     0.974630000000     0.532630000000     0.0185872  
C669     C      0.491880000000     0.981960000000     0.566690000000     0.0187391  
C670     C      0.503870000000     0.005790000000     0.575550000000    -0.0653497  
C671     C      0.528430000000     0.047860000000     0.550620000000    -0.0277477  
C672     C      0.501930000000     0.990740000000     0.505490000000    -0.0652809  
C673     C      0.514880000000     0.021900000000     0.548420000000     0.0186525  
C674     C      0.513940000000     0.014590000000     0.514350000000     0.0186581  
C675     C      0.037040000000     0.829330000000     0.528850000000    -0.0278373  
C676     C      0.979990000000     0.835110000000     0.635720000000    -0.0280973  
C677     C      0.966070000000     0.796070000000     0.612750000000    -0.0282689  
C678     C      0.989770000000     0.812890000000     0.598500000000     0.0192337  
C679     C      0.997750000000     0.835190000000     0.611620000000     0.019029   
C680     C      0.018370000000     0.854710000000     0.598820000000    -0.0654446  
C681     C      0.051180000000     0.868380000000     0.552040000000    -0.0280364  
C682     C      0.001890000000     0.808900000000     0.571820000000    -0.0661052  
C683     C      0.030720000000     0.850650000000     0.572550000000     0.0185896  
C684     C      0.022680000000     0.828360000000     0.559370000000     0.0187986  
C685     C      0.201150000000     0.032800000000     0.565400000000    -0.0277139  
C686     C      0.138970000000     0.974310000000     0.458520000000    -0.0278235  
C687     C      0.163210000000     0.960480000000     0.485290000000    -0.0278152  
C688     C      0.170250000000     0.984280000000     0.498030000000     0.0186717  
C689     C      0.156420000000     0.992200000000     0.482780000000     0.0187104  
C690     C      0.157830000000     0.013100000000     0.493560000000    -0.06511    
C691     C      0.177020000000     0.046770000000     0.538630000000    -0.0280165  
C692     C      0.186190000000     0.996780000000     0.524880000000    -0.0651955  
C693     C      0.174040000000     0.025790000000     0.520070000000     0.0186479  
C694     C      0.187830000000     0.017830000000     0.535320000000     0.018552   
C695     C      0.354140000000     0.824950000000     0.125810000000    -0.0278336  
C696     C      0.297660000000     0.830420000000     0.233960000000    -0.0277978  
C697     C      0.281430000000     0.792180000000     0.206710000000    -0.0281075  
C698     C      0.302970000000     0.809850000000     0.188000000000     0.0185476  
C699     C      0.312200000000     0.831680000000     0.203530000000     0.0186629  
C700     C      0.333980000000     0.850740000000     0.193100000000    -0.0652962  
C701     C      0.370140000000     0.863170000000     0.153050000000    -0.0278233  
C702     C      0.315080000000     0.805880000000     0.161240000000    -0.0650019  
C703     C      0.345900000000     0.846870000000     0.165990000000     0.0187399  
C704     C      0.336730000000     0.825040000000     0.150470000000     0.0186269  
C705     C      0.159430000000     0.612730000000     0.216810000000    -0.0277861  
C706     C      0.169550000000     0.696000000000     0.276410000000    -0.0280149  
C707     C      0.196130000000     0.683820000000     0.299500000000    -0.0278431  
C708     C      0.178480000000     0.665670000000     0.275730000000     0.0186196  
C709     C      0.163280000000     0.672630000000     0.262650000000     0.0188354  
C710     C      0.146860000000     0.659880000000     0.236440000000    -0.0653105  
C711     C      0.132760000000     0.624910000000     0.194140000000    -0.027926   
C712     C      0.178100000000     0.645600000000     0.263180000000    -0.064907   
C713     C      0.146220000000     0.639610000000     0.224320000000     0.0188209  
C714     C      0.161440000000     0.632660000000     0.237300000000     0.0184226  
C715     C      0.379250000000     0.826340000000     0.491260000000    -0.0277242  
C716     C      0.284120000000     0.786530000000     0.442800000000    -0.027922   
C717     C      0.312560000000     0.789860000000     0.399230000000    -0.0278672  
C718     C      0.324100000000     0.797560000000     0.433770000000     0.0183703  
C719     C      0.307860000000     0.795680000000     0.458590000000     0.0187445  
C720     C      0.314750000000     0.803340000000     0.492840000000    -0.0654303  
C721     C      0.350680000000     0.823180000000     0.534490000000    -0.0278086  
C722     C      0.348140000000     0.807150000000     0.441890000000    -0.0651082  
C723     C      0.338730000000     0.812780000000     0.501010000000     0.0186934  
C724     C      0.355000000000     0.814610000000     0.476280000000     0.0184114  
C725     C      0.200460000000     0.824930000000     0.339020000000    -0.0276973  
C726     C      0.130770000000     0.831860000000     0.419020000000    -0.0276568  
C727     C      0.149660000000     0.861140000000     0.373540000000    -0.0278323  
C728     C      0.159170000000     0.845050000000     0.373960000000     0.0186905  
C729     C      0.148420000000     0.828350000000     0.399900000000     0.0184446  
C730     C      0.154560000000     0.811200000000     0.405680000000    -0.0652397  
C731     C      0.181660000000     0.795680000000     0.384560000000    -0.0277301  
C732     C      0.176630000000     0.845530000000     0.352320000000    -0.0654368  
C733     C      0.172020000000     0.811680000000     0.384040000000     0.018533   
C734     C      0.182750000000     0.828370000000     0.358080000000     0.0186099  
C735     C      0.717820000000     0.503880000000     0.388190000000    -0.0279961  
C736     C      0.633790000000     0.492500000000     0.450150000000    -0.0281611  
C737     C      0.644990000000     0.464380000000     0.468620000000    -0.0279385  
C738     C      0.663860000000     0.482950000000     0.446750000000     0.0185919  
C739     C      0.657470000000     0.499030000000     0.436290000000     0.0187514  
C740     C      0.670940000000     0.516590000000     0.411940000000    -0.065232   
C741     C      0.706740000000     0.532170000000     0.370130000000    -0.0278881  
C742     C      0.684030000000     0.483520000000     0.433300000000    -0.0650041  
C743     C      0.691320000000     0.517400000000     0.398960000000     0.0187244  
C744     C      0.697680000000     0.501280000000     0.409320000000     0.0184827  
C745     C      0.803430000000     0.487360000000     0.292700000000    -0.0279164  
C746     C      0.870080000000     0.493720000000     0.393520000000    -0.0279028  
C747     C      0.842620000000     0.454390000000     0.372680000000    -0.0279714  
C748     C      0.839980000000     0.472000000000     0.352430000000     0.0185561  
C749     C      0.855680000000     0.494450000000     0.364300000000     0.018664   
C750     C      0.854750000000     0.513920000000     0.352130000000    -0.0651961  
C751     C      0.830980000000     0.526670000000     0.313470000000    -0.0280129  
C752     C      0.822490000000     0.467800000000     0.327790000000    -0.0650589  
C753     C      0.837500000000     0.509760000000     0.327090000000     0.0187296  
C754     C      0.821790000000     0.487310000000     0.315240000000     0.0186726  
C755     C      0.961040000000     0.792700000000     0.054140000000    -0.0278441  
C756     C      0.022120000000     0.861340000000     0.956020000000    -0.0278996  
C757     C      0.034010000000     0.833680000000     0.974200000000    -0.0278558  
C758     C      0.010260000000     0.826770000000     0.988240000000     0.0181328  
C759     C      0.003500000000     0.842590000000     0.977940000000     0.0184794  
C760     C      0.983140000000     0.841600000000     0.991460000000    -0.0647471  
C761     C      0.949350000000     0.820600000000     0.036400000000    -0.0279062  
C762     C      0.997000000000     0.809040000000     0.012470000000    -0.0641493  
C763     C      0.969710000000     0.823690000000     0.015350000000     0.0186647  
C764     C      0.976420000000     0.807800000000     0.025520000000     0.0184721  
C765     C      0.820280000000     0.866080000000     0.053370000000    -0.0279417  
C766     C      0.834870000000     0.793890000000     0.105340000000    -0.0278765  
C767     C      0.859250000000     0.832130000000     0.131930000000    -0.0279518  
C768     C      0.841460000000     0.832350000000     0.108260000000     0.0187679  
C769     C      0.827590000000     0.810520000000     0.093030000000     0.0185943  
C770     C      0.811490000000     0.806970000000     0.066410000000    -0.0650837  
C771     C      0.796310000000     0.827930000000     0.026290000000    -0.0276965  
C772     C      0.839850000000     0.851770000000     0.097840000000    -0.0650552  
C773     C      0.809680000000     0.826330000000     0.056270000000     0.0185259  
C774     C      0.823430000000     0.848120000000     0.071660000000     0.0186063  
C775     C      0.984310000000     0.839340000000     0.221500000000    -0.0282193  
C776     C      0.019400000000     0.866820000000     0.359650000000    -0.0275705  
C777     C      0.049130000000     0.873890000000     0.315960000000    -0.0280648  
C778     C      0.025520000000     0.864540000000     0.299620000000     0.0191455  
C779     C      0.008550000000     0.860550000000     0.324500000000     0.0175513  
C780     C      0.984540000000     0.850420000000     0.315710000000    -0.0641891  
C781     C      0.954470000000     0.832660000000     0.264790000000    -0.0276494  
C782     C      0.019430000000     0.858490000000     0.264660000000    -0.066238   
C783     C      0.978480000000     0.844620000000     0.280640000000     0.0179575  
C784     C      0.995470000000     0.848490000000     0.255860000000     0.019452   
C785     C      0.858270000000     0.710800000000     0.222110000000    -0.0279277  
C786     C      0.809270000000     0.611660000000     0.201520000000    -0.0277665  
C787     C      0.804980000000     0.624340000000     0.259070000000    -0.027877   
C788     C      0.820210000000     0.644840000000     0.236760000000     0.0187492  
C789     C      0.822670000000     0.637620000000     0.203940000000     0.0185698  
C790     C      0.836400000000     0.653820000000     0.178110000000    -0.0652711  
C791     C      0.862650000000     0.698160000000     0.164580000000    -0.0279428  
C792     C      0.831320000000     0.668660000000     0.245580000000    -0.0654154  
C793     C      0.847530000000     0.677630000000     0.186950000000     0.0186675  
C794     C      0.845050000000     0.684840000000     0.219750000000     0.0187187  
C795     C      0.704450000000     0.529490000000     0.818880000000    -0.0279183  
C796     C      0.616550000000     0.458000000000     0.873990000000    -0.0279953  
C797     C      0.631430000000     0.496760000000     0.898820000000    -0.0278021  
C798     C      0.646380000000     0.497770000000     0.869070000000     0.0186229  
C799     C      0.637900000000     0.475640000000     0.854950000000     0.0186482  
C800     C      0.650520000000     0.471520000000     0.829210000000    -0.0650129  
C801     C      0.689780000000     0.490700000000     0.794330000000    -0.0278011  
C802     C      0.667880000000     0.517000000000     0.858100000000    -0.0652034  
C803     C      0.671890000000     0.490810000000     0.817920000000     0.018658   
C804     C      0.680300000000     0.512960000000     0.831950000000     0.0187139  
C805     C      0.463700000000     0.294030000000     0.855730000000    -0.0276355  
C806     C      0.524930000000     0.351070000000     0.964510000000    -0.0279056  
C807     C      0.502110000000     0.366070000000     0.936380000000    -0.0279388  
C808     C      0.494610000000     0.342160000000     0.923660000000     0.018733   
C809     C      0.507620000000     0.333570000000     0.939690000000     0.0187422  
C810     C      0.505690000000     0.312390000000     0.929190000000    -0.0650449  
C811     C      0.486410000000     0.278900000000     0.883840000000    -0.0280346  
C812     C      0.478990000000     0.330070000000     0.896280000000    -0.065246   
C813     C      0.489800000000     0.300120000000     0.902150000000     0.018654   
C814     C      0.476810000000     0.308740000000     0.886120000000     0.0185744  
C815     C      0.710380000000     0.489860000000     0.159240000000    -0.0277651  
C816     C      0.615780000000     0.450430000000     0.108570000000    -0.0280584  
C817     C      0.645010000000     0.455700000000     0.065060000000    -0.0277806  
C818     C      0.656030000000     0.462280000000     0.100080000000     0.0182569  
C819     C      0.639340000000     0.459310000000     0.124860000000     0.0187638  
C820     C      0.645700000000     0.465890000000     0.159610000000    -0.0654687  
C821     C      0.681050000000     0.484900000000     0.202380000000    -0.0278905  
C822     C      0.679990000000     0.471900000000     0.108740000000    -0.0650107  
C823     C      0.669610000000     0.475360000000     0.168300000000     0.0186687  
C824     C      0.686310000000     0.478240000000     0.143610000000     0.0183324  
C825     C      0.300050000000     0.464980000000     0.274170000000    -0.0281745  
C826     C      0.386370000000     0.536250000000     0.214790000000    -0.0280123  
C827     C      0.370720000000     0.497410000000     0.189860000000    -0.0278358  
C828     C      0.356770000000     0.496480000000     0.220870000000     0.0186089  
C829     C      0.365650000000     0.518660000000     0.235040000000     0.0185139  
C830     C      0.353760000000     0.522860000000     0.261870000000    -0.0649855  
C831     C      0.315370000000     0.503830000000     0.298800000000    -0.0279641  
C832     C      0.335590000000     0.477290000000     0.232880000000    -0.0651832  
C833     C      0.332730000000     0.503600000000     0.274190000000     0.0186025  
C834     C      0.323940000000     0.481410000000     0.260120000000     0.0187307  
C835     C      0.537400000000     0.703960000000     0.218320000000    -0.0279971  
C836     C      0.468860000000     0.642530000000     0.120030000000    -0.0277218  
C837     C      0.497390000000     0.631610000000     0.138560000000    -0.0280143  
C838     C      0.503800000000     0.654960000000     0.152550000000     0.0188067  
C839     C      0.487480000000     0.661180000000     0.142120000000     0.0185955  
C840     C      0.487970000000     0.681120000000     0.155560000000    -0.0650538  
C841     C      0.508600000000     0.714710000000     0.200490000000    -0.0279816  
C842     C      0.521580000000     0.668390000000     0.176780000000    -0.06525    
C843     C      0.505940000000     0.694700000000     0.179490000000     0.018547   
C844     C      0.522340000000     0.688540000000     0.189730000000     0.0187938  
C845     C      0.382660000000     0.539410000000     0.976430000000    -0.0280106  
C846     C      0.288430000000     0.500200000000     0.924320000000    -0.0276778  
C847     C      0.317910000000     0.504460000000     0.881940000000    -0.0280734  
C848     C      0.329160000000     0.514160000000     0.916060000000     0.0188493  
C849     C      0.312380000000     0.511670000000     0.940330000000     0.0182451  
C850     C      0.318530000000     0.518280000000     0.975170000000    -0.0648992  
C851     C      0.353300000000     0.534770000000     0.019290000000    -0.0277083  
C852     C      0.352990000000     0.523520000000     0.925130000000    -0.0655671  
C853     C      0.342410000000     0.527760000000     0.984220000000     0.0181742  
C854     C      0.359180000000     0.530360000000     0.959830000000     0.018863   
C855     C      0.484540000000     0.530380000000     0.037400000000    -0.0278904  
C856     C      0.516800000000     0.465240000000     0.050680000000    -0.0278097  
C857     C      0.535560000000     0.494070000000     0.004590000000    -0.0277338  
C858     C      0.517980000000     0.497770000000     0.023510000000     0.0185624  
C859     C      0.507290000000     0.481330000000     0.049800000000     0.0185927  
C860     C      0.489820000000     0.481020000000     0.071230000000    -0.0653221  
C861     C      0.465840000000     0.501590000000     0.083560000000    -0.0277105  
C862     C      0.511760000000     0.514810000000     0.017150000000    -0.0653284  
C863     C      0.483630000000     0.498070000000     0.064900000000     0.0185606  
C864     C      0.494290000000     0.514500000000     0.038590000000     0.0186361  
Cd1      Cd     0.427110000000     0.553180000000     0.094140000000     0.506619   
Cd2      Cd     0.571910000000     0.440490000000     0.991260000000     0.50687    
Cd3      Cd     0.905880000000     0.789010000000     0.153810000000     0.506839   
Cd4      Cd     0.760080000000     0.533480000000     0.269460000000     0.50678    
Cd5      Cd     0.238800000000     0.773150000000     0.326000000000     0.506903   
Cd6      Cd     0.093650000000     0.884750000000     0.432960000000     0.506692   
Cd7      Cd     0.572970000000     0.126000000000     0.481280000000     0.506972   
Cd8      Cd     0.430490000000     0.870680000000     0.599880000000     0.506989   
Cd9      Cd     0.903510000000     0.106530000000     0.654340000000     0.506968   
Cd10     Cd     0.761930000000     0.222400000000     0.758210000000     0.50684    
Cd11     Cd     0.239360000000     0.456190000000     0.813870000000     0.507031   
Cd12     Cd     0.093320000000     0.201050000000     0.931420000000     0.507062   
Cd13     Cd     0.889410000000     0.790390000000     0.659440000000     0.50716    
Cd14     Cd     0.780310000000     0.534650000000     0.768950000000     0.50673    
Cd15     Cd     0.204500000000     0.110010000000     0.152680000000     0.506638   
Cd16     Cd     0.463020000000     0.219620000000     0.264060000000     0.506679   
Cd17     Cd     0.870930000000     0.439740000000     0.490630000000     0.506517   
Cd18     Cd     0.130740000000     0.555970000000     0.597600000000     0.506602   
Cd19     Cd     0.111210000000     0.204780000000     0.429000000000     0.506752   
Cd20     Cd     0.224800000000     0.461610000000     0.322230000000     0.507059   
Cd21     Cd     0.444300000000     0.867880000000     0.097370000000     0.506721   
Cd22     Cd     0.558060000000     0.124950000000     0.991010000000     0.506872   
Cd23     Cd     0.796490000000     0.886200000000     0.935660000000     0.506639   
Cd24     Cd     0.538690000000     0.775520000000     0.821440000000     0.506675   
Cd25     Cd     0.135730000000     0.572930000000     0.095770000000     0.506887   
Cd26     Cd     0.876810000000     0.425060000000     0.985890000000     0.506973   
Cd27     Cd     0.202370000000     0.091750000000     0.655660000000     0.506952   
Cd28     Cd     0.461460000000     0.233850000000     0.766820000000     0.507138   
Cd29     Cd     0.224880000000     0.762210000000     0.820850000000     0.506714   
Cd30     Cd     0.112660000000     0.905500000000     0.932700000000     0.506765   
Cd31     Cd     0.554300000000     0.421300000000     0.490220000000     0.506806   
Cd32     Cd     0.448840000000     0.571510000000     0.596570000000     0.506571   
Cd33     Cd     0.890980000000     0.090980000000     0.158410000000     0.506813   
Cd34     Cd     0.780150000000     0.236900000000     0.262620000000     0.506683   
Cd35     Cd     0.798000000000     0.901310000000     0.433150000000     0.506851   
Cd36     Cd     0.539790000000     0.757850000000     0.318010000000     0.506901   
H1       H      0.630500000000     0.781680000000     0.323370000000     0.0524496  
H2       H      0.611620000000     0.791940000000     0.407320000000     0.0519899  
H3       H      0.655710000000     0.834230000000     0.434910000000     0.0503525  
H4       H      0.681770000000     0.820090000000     0.319260000000     0.0504058  
H5       H      0.725090000000     0.836720000000     0.363700000000     0.0531767  
H6       H      0.706570000000     0.872670000000     0.430700000000     0.0525894  
H7       H      0.631840000000     0.807610000000     0.305700000000     0.0533635  
H8       H      0.612700000000     0.818000000000     0.390760000000     0.0532224  
H9       H      0.706050000000     0.847110000000     0.448280000000     0.0529175  
H10      H      0.725570000000     0.862320000000     0.346340000000     0.0525928  
H11      H      0.838920000000     0.936230000000     0.308370000000     0.0520089  
H12      H      0.869590000000     0.979480000000     0.374880000000     0.0516759  
H13      H      0.879920000000     0.025220000000     0.340170000000     0.0501589  
H14      H      0.836600000000     0.964840000000     0.247710000000     0.050188   
H15      H      0.871050000000     0.007740000000     0.206280000000     0.0518269  
H16      H      0.876880000000     0.053330000000     0.282660000000     0.0529821  
H17      H      0.813110000000     0.939290000000     0.311670000000     0.053446   
H18      H      0.844970000000     0.984230000000     0.380580000000     0.0532104  
H19      H      0.902830000000     0.051470000000     0.272780000000     0.052484   
H20      H      0.844350000000     0.008530000000     0.214800000000     0.0530087  
H21      H      0.842780000000     0.208060000000     0.267110000000     0.0523309  
H22      H      0.820540000000     0.203290000000     0.178890000000     0.0521876  
H23      H      0.820690000000     0.161020000000     0.150390000000     0.0504191  
H24      H      0.851280000000     0.167420000000     0.271910000000     0.0503858  
H25      H      0.879020000000     0.150760000000     0.231500000000     0.053312   
H26      H      0.829150000000     0.120490000000     0.155020000000     0.052449   
H27      H      0.815400000000     0.182340000000     0.280080000000     0.0532429  
H28      H      0.792890000000     0.177500000000     0.190740000000     0.0534709  
H29      H      0.856590000000     0.146180000000     0.142210000000     0.0534232  
H30      H      0.851310000000     0.125030000000     0.243290000000     0.0520553  
H31      H      0.516260000000     0.721710000000     0.441430000000     0.0533671  
H32      H      0.501150000000     0.676000000000     0.373520000000     0.0533152  
H33      H      0.467210000000     0.632500000000     0.409620000000     0.0501196  
H34      H      0.488130000000     0.693810000000     0.501400000000     0.0500855  
H35      H      0.485050000000     0.654120000000     0.541140000000     0.0529256  
H36      H      0.439450000000     0.604120000000     0.473150000000     0.0523033  
H37      H      0.487490000000     0.718420000000     0.434170000000     0.0521399  
H38      H      0.472960000000     0.674420000000     0.368510000000     0.0513073  
H39      H      0.469030000000     0.608580000000     0.473100000000     0.0532837  
H40      H      0.454990000000     0.648280000000     0.539370000000     0.0516527  
H41      H      0.517180000000     0.457390000000     0.576990000000     0.0518535  
H42      H      0.492160000000     0.450790000000     0.490480000000     0.0524267  
H43      H      0.484680000000     0.491950000000     0.484730000000     0.0504414  
H44      H      0.519270000000     0.501240000000     0.604090000000     0.0503768  
H45      H      0.484650000000     0.517600000000     0.613730000000     0.0533144  
H46      H      0.486680000000     0.535640000000     0.511620000000     0.0521979  
H47      H      0.544740000000     0.482430000000     0.562910000000     0.0532839  
H48      H      0.519310000000     0.475750000000     0.475020000000     0.0536571  
H49      H      0.459160000000     0.510590000000     0.525810000000     0.0536691  
H50      H      0.511770000000     0.542520000000     0.598130000000     0.0521454  
H51      H      0.188270000000     0.815810000000     0.805690000000     0.0531925  
H52      H      0.212770000000     0.821570000000     0.893870000000     0.0534348  
H53      H      0.185410000000     0.837850000000     0.935830000000     0.0504301  
H54      H      0.152110000000     0.830190000000     0.815890000000     0.0503793  
H55      H      0.152040000000     0.872490000000     0.845050000000     0.0519346  
H56      H      0.149240000000     0.852090000000     0.946070000000     0.0535098  
H57      H      0.161340000000     0.790010000000     0.819780000000     0.0522872  
H58      H      0.185550000000     0.795690000000     0.906870000000     0.0522471  
H59      H      0.176160000000     0.877930000000     0.932100000000     0.0524817  
H60      H      0.124790000000     0.846590000000     0.857880000000     0.0531964  
H61      H      0.516690000000     0.313830000000     0.711140000000     0.0532757  
H62      H      0.472620000000     0.271190000000     0.647190000000     0.053674   
H63      H      0.491020000000     0.295040000000     0.580800000000     0.0501864  
H64      H      0.550380000000     0.352120000000     0.665720000000     0.0501482  
H65      H      0.546310000000     0.383200000000     0.614040000000     0.0527315  
H66      H      0.524460000000     0.335510000000     0.534800000000     0.0518014  
H67      H      0.536550000000     0.304090000000     0.696780000000     0.0514337  
H68      H      0.494610000000     0.263530000000     0.635840000000     0.0516698  
H69      H      0.502100000000     0.340970000000     0.552210000000     0.0529438  
H70      H      0.567960000000     0.376980000000     0.595800000000     0.0526253  
H71      H      0.189270000000     0.055730000000     0.776650000000     0.0536276  
H72      H      0.149090000000     0.011320000000     0.710930000000     0.0533156  
H73      H      0.115650000000     0.972190000000     0.755120000000     0.0500933  
H74      H      0.169780000000     0.031560000000     0.842440000000     0.0501176  
H75      H      0.161030000000     0.986830000000     0.872520000000     0.0529664  
H76      H      0.097070000000     0.947040000000     0.824740000000     0.052524   
H77      H      0.165520000000     0.061440000000     0.785100000000     0.0516269  
H78      H      0.127360000000     0.019270000000     0.722570000000     0.0513284  
H79      H      0.120570000000     0.942820000000     0.808740000000     0.0528507  
H80      H      0.136710000000     0.990100000000     0.887440000000     0.0516721  
H81      H      0.290020000000     0.109740000000     0.675140000000     0.0524798  
H82      H      0.274310000000     0.139490000000     0.740810000000     0.0528209  
H83      H      0.320970000000     0.182650000000     0.757120000000     0.0503038  
H84      H      0.342580000000     0.141820000000     0.667060000000     0.0503787  
H85      H      0.384650000000     0.162740000000     0.714670000000     0.0530062  
H86      H      0.373440000000     0.214750000000     0.748920000000     0.0526134  
H87      H      0.294770000000     0.131930000000     0.643560000000     0.0528093  
H88      H      0.278990000000     0.161830000000     0.709560000000     0.0530907  
H89      H      0.368910000000     0.192650000000     0.780520000000     0.0527227  
H90      H      0.389160000000     0.184910000000     0.683210000000     0.0530005  
H91      H      0.790330000000     0.315820000000     0.206830000000     0.0516219  
H92      H      0.772020000000     0.271690000000     0.140030000000     0.0522353  
H93      H      0.800690000000     0.299450000000     0.076590000000     0.0501302  
H94      H      0.825480000000     0.360790000000     0.169380000000     0.0501546  
H95      H      0.826500000000     0.386740000000     0.102980000000     0.052313   
H96      H      0.836510000000     0.342450000000     0.040850000000     0.0531421  
H97      H      0.819680000000     0.319740000000     0.208300000000     0.0531173  
H98      H      0.800760000000     0.274120000000     0.139500000000     0.0533678  
H99      H      0.809140000000     0.342590000000     0.036330000000     0.0515297  
H100     H      0.854460000000     0.388050000000     0.109400000000     0.0533971  
H101     H      0.185340000000     0.613400000000     0.978780000000     0.0521329  
H102     H      0.200680000000     0.656890000000     0.045920000000     0.05155    
H103     H      0.206770000000     0.699380000000     0.006260000000     0.0501377  
H104     H      0.184870000000     0.638950000000     0.912750000000     0.0501248  
H105     H      0.218390000000     0.684730000000     0.875750000000     0.0517835  
H106     H      0.205150000000     0.724210000000     0.943650000000     0.0532777  
H107     H      0.156670000000     0.610590000000     0.972550000000     0.0533035  
H108     H      0.172540000000     0.655510000000     0.041650000000     0.0531472  
H109     H      0.234570000000     0.728260000000     0.943100000000     0.0522632  
H110     H      0.188460000000     0.679290000000     0.874360000000     0.0530354  
H111     H      0.969120000000     0.454350000000     0.983190000000     0.0525334  
H112     H      0.950660000000     0.456790000000     0.071580000000     0.0519475  
H113     H      0.993590000000     0.498870000000     0.102090000000     0.050325   
H114     H      0.019090000000     0.495620000000     0.980160000000     0.0504909  
H115     H      0.063730000000     0.512230000000     0.021200000000     0.0532683  
H116     H      0.043200000000     0.540050000000     0.099190000000     0.0523555  
H117     H      0.967950000000     0.480170000000     0.971510000000     0.0535461  
H118     H      0.949220000000     0.482670000000     0.061260000000     0.0533623  
H119     H      0.044970000000     0.514510000000     0.110620000000     0.0531015  
H120     H      0.061790000000     0.537770000000     0.010440000000     0.0521283  
H121     H      0.516070000000     0.621950000000     0.694980000000     0.051206   
H122     H      0.459140000000     0.598240000000     0.732640000000     0.0508438  
H123     H      0.461260000000     0.640640000000     0.770580000000     0.0503676  
H124     H      0.541910000000     0.674050000000     0.717660000000     0.0502341  
H125     H      0.551050000000     0.702990000000     0.785130000000     0.0509212  
H126     H      0.483190000000     0.689990000000     0.787680000000     0.0546661  
H127     H      0.511810000000     0.640740000000     0.665440000000     0.0545305  
H128     H      0.451030000000     0.615400000000     0.705590000000     0.0544939  
H129     H      0.494000000000     0.679540000000     0.822480000000     0.0514307  
H130     H      0.543990000000     0.714980000000     0.747890000000     0.0544015  
H131     H      0.828500000000     0.026280000000     0.083660000000     0.0550907  
H132     H      0.890560000000     0.045960000000     0.051850000000     0.0545047  
H133     H      0.881600000000     0.020130000000     0.987640000000     0.0503554  
H134     H      0.799610000000     0.994030000000     0.030110000000     0.0502478  
H135     H      0.794960000000     0.950990000000     0.004030000000     0.0546728  
H136     H      0.849090000000     0.982170000000     0.934060000000     0.0512711  
H137     H      0.828560000000     0.046400000000     0.051820000000     0.0511916  
H138     H      0.886370000000     0.064750000000     0.022210000000     0.0504961  
H139     H      0.856550000000     0.970560000000     0.971350000000     0.0543283  
H140     H      0.791170000000     0.963670000000     0.964680000000     0.0508553  
H141     H      0.630450000000     0.822430000000     0.812090000000     0.0537505  
H142     H      0.611230000000     0.784350000000     0.889960000000     0.0532229  
H143     H      0.654060000000     0.807180000000     0.935240000000     0.0502936  
H144     H      0.679920000000     0.858990000000     0.829820000000     0.0504107  
H145     H      0.723930000000     0.859030000000     0.850660000000     0.0528709  
H146     H      0.704270000000     0.843730000000     0.952540000000     0.0528007  
H147     H      0.628400000000     0.844460000000     0.837080000000     0.0522508  
H148     H      0.609590000000     0.807110000000     0.913520000000     0.0518473  
H149     H      0.705230000000     0.821170000000     0.927380000000     0.0524837  
H150     H      0.723000000000     0.881750000000     0.875450000000     0.0532887  
H151     H      0.459330000000     0.170820000000     0.844190000000     0.0546588  
H152     H      0.518820000000     0.205970000000     0.800570000000     0.0543647  
H153     H      0.541290000000     0.179070000000     0.817210000000     0.0504013  
H154     H      0.462120000000     0.132510000000     0.874900000000     0.0502574  
H155     H      0.493560000000     0.130460000000     0.925630000000     0.0542028  
H156     H      0.544490000000     0.139660000000     0.855790000000     0.0509042  
H157     H      0.451100000000     0.150860000000     0.807800000000     0.0510317  
H158     H      0.507120000000     0.183920000000     0.766770000000     0.0512824  
H159     H      0.553240000000     0.165450000000     0.882070000000     0.0545048  
H160     H      0.488530000000     0.106830000000     0.896660000000     0.0513428  
H161     H      0.482810000000     0.785950000000     0.287330000000     0.0548388  
H162     H      0.543570000000     0.823950000000     0.247610000000     0.0546798  
H163     H      0.539710000000     0.861620000000     0.217370000000     0.0502451  
H164     H      0.459380000000     0.811650000000     0.270160000000     0.0503841  
H165     H      0.448360000000     0.825680000000     0.204990000000     0.0544885  
H166     H      0.512220000000     0.885960000000     0.194330000000     0.0513994  
H167     H      0.493140000000     0.807240000000     0.322180000000     0.0512012  
H168     H      0.549760000000     0.842670000000     0.285140000000     0.0507697  
H169     H      0.508780000000     0.863100000000     0.164940000000     0.0541699  
H170     H      0.455410000000     0.850740000000     0.232040000000     0.0509874  
H171     H      0.480330000000     0.759630000000     0.930820000000     0.0522868  
H172     H      0.474360000000     0.796090000000     0.866730000000     0.0514997  
H173     H      0.467970000000     0.830840000000     0.910360000000     0.0501869  
H174     H      0.476620000000     0.780710000000     0.000000000000     0.0501392  
H175     H      0.442400000000     0.793550000000     0.034190000000     0.0515423  
H176     H      0.466210000000     0.852780000000     0.975590000000     0.0533964  
H177     H      0.508960000000     0.783370000000     0.944300000000     0.0529792  
H178     H      0.502750000000     0.820990000000     0.878350000000     0.0532553  
H179     H      0.436040000000     0.829140000000     0.969850000000     0.0518643  
H180     H      0.472860000000     0.815620000000     0.042690000000     0.0531429  
H181     H      0.553460000000     0.050100000000     0.043880000000     0.0532209  
H182     H      0.507510000000     0.033790000000     0.977010000000     0.0529691  
H183     H      0.470370000000     0.985270000000     0.998240000000     0.0503406  
H184     H      0.533000000000     0.007500000000     0.089360000000     0.0504056  
H185     H      0.514350000000     0.955910000000     0.078710000000     0.0523619  
H186     H      0.449890000000     0.942760000000     0.043670000000     0.0532854  
H187     H      0.534470000000     0.052910000000     0.075170000000     0.0527135  
H188     H      0.488920000000     0.036750000000     0.008890000000     0.0524114  
H189     H      0.468870000000     0.939830000000     0.012490000000     0.0526204  
H190     H      0.495870000000     0.959010000000     0.110620000000     0.0530596  
H191     H      0.228820000000     0.513030000000     0.221320000000     0.0542862  
H192     H      0.166420000000     0.463080000000     0.236300000000     0.0548669  
H193     H      0.141700000000     0.466590000000     0.176740000000     0.0503677  
H194     H      0.224580000000     0.532480000000     0.156400000000     0.0502757  
H195     H      0.197020000000     0.553030000000     0.135530000000     0.0549379  
H196     H      0.137410000000     0.491350000000     0.110900000000     0.0506713  
H197     H      0.231530000000     0.493970000000     0.190330000000     0.050524   
H198     H      0.172980000000     0.447160000000     0.204260000000     0.0515482  
H199     H      0.134200000000     0.503210000000     0.151570000000     0.0548739  
H200     H      0.195630000000     0.537440000000     0.096110000000     0.0509874  
H201     H      0.121730000000     0.187640000000     0.564200000000     0.0509456  
H202     H      0.178610000000     0.221070000000     0.526150000000     0.0513523  
H203     H      0.204410000000     0.194870000000     0.548480000000     0.0502432  
H204     H      0.123990000000     0.147590000000     0.602290000000     0.0503844  
H205     H      0.156970000000     0.141860000000     0.654010000000     0.051394   
H206     H      0.206370000000     0.155920000000     0.578740000000     0.0545599  
H207     H      0.113570000000     0.162310000000     0.537140000000     0.0545708  
H208     H      0.174180000000     0.197930000000     0.496590000000     0.05426    
H209     H      0.213880000000     0.175380000000     0.615640000000     0.0510593  
H210     H      0.145960000000     0.120310000000     0.619500000000     0.0543316  
H211     H      0.144130000000     0.277790000000     0.343290000000     0.0523598  
H212     H      0.178500000000     0.295300000000     0.423360000000     0.0522596  
H213     H      0.191030000000     0.345600000000     0.432540000000     0.0503799  
H214     H      0.143870000000     0.321350000000     0.321970000000     0.0504709  
H215     H      0.180520000000     0.371210000000     0.308060000000     0.0538431  
H216     H      0.190570000000     0.389280000000     0.410900000000     0.0518342  
H217     H      0.119690000000     0.277780000000     0.365090000000     0.0535574  
H218     H      0.154510000000     0.295470000000     0.446290000000     0.053126   
H219     H      0.215140000000     0.389220000000     0.389670000000     0.0533367  
H220     H      0.156590000000     0.371650000000     0.330710000000     0.0523443  
H221     H      0.214410000000     0.734270000000     0.685060000000     0.0507793  
H222     H      0.157630000000     0.711920000000     0.722500000000     0.0512052  
H223     H      0.131020000000     0.659490000000     0.701530000000     0.0502572  
H224     H      0.211380000000     0.691080000000     0.648400000000     0.0503606  
H225     H      0.178010000000     0.651890000000     0.597280000000     0.0513664  
H226     H      0.128280000000     0.617810000000     0.672720000000     0.0545476  
H227     H      0.222120000000     0.717130000000     0.712850000000     0.0545979  
H228     H      0.161440000000     0.693240000000     0.752860000000     0.0546463  
H229     H      0.121110000000     0.629580000000     0.635310000000     0.050949   
H230     H      0.188560000000     0.641390000000     0.632360000000     0.0542773  
H231     H      0.142400000000     0.529170000000     0.477920000000     0.0535317  
H232     H      0.185240000000     0.529800000000     0.542790000000     0.0530991  
H233     H      0.219920000000     0.526260000000     0.498110000000     0.0501851  
H234     H      0.162050000000     0.525040000000     0.411660000000     0.050205   
H235     H      0.173740000000     0.490910000000     0.382320000000     0.0531006  
H236     H      0.238810000000     0.520380000000     0.428310000000     0.052489   
H237     H      0.164480000000     0.559090000000     0.467540000000     0.0518977  
H238     H      0.205500000000     0.559710000000     0.529770000000     0.0515774  
H239     H      0.216990000000     0.492100000000     0.445420000000     0.0527442  
H240     H      0.196490000000     0.519150000000     0.366360000000     0.0516929  
H241     H      0.845680000000     0.285300000000     0.363680000000     0.0512706  
H242     H      0.788180000000     0.262920000000     0.398780000000     0.0508108  
H243     H      0.791140000000     0.305650000000     0.436800000000     0.0503216  
H244     H      0.872460000000     0.337240000000     0.387190000000     0.0502638  
H245     H      0.881230000000     0.365880000000     0.454790000000     0.0509466  
H246     H      0.814080000000     0.354890000000     0.454880000000     0.0544916  
H247     H      0.842790000000     0.304820000000     0.333880000000     0.0545677  
H248     H      0.781470000000     0.280940000000     0.371290000000     0.0544496  
H249     H      0.823790000000     0.343640000000     0.490050000000     0.0513135  
H250     H      0.875310000000     0.378560000000     0.417260000000     0.0545759  
H251     H      0.943490000000     0.468820000000     0.577860000000     0.0523286  
H252     H      0.959930000000     0.509820000000     0.505700000000     0.0523756  
H253     H      0.011950000000     0.527310000000     0.496200000000     0.0504783  
H254     H      0.989270000000     0.470690000000     0.595430000000     0.0502633  
H255     H      0.038610000000     0.508250000000     0.614150000000     0.052776   
H256     H      0.057560000000     0.529210000000     0.513460000000     0.0528078  
H257     H      0.946210000000     0.448170000000     0.550370000000     0.0533525  
H258     H      0.962890000000     0.489710000000     0.477280000000     0.0533708  
H259     H      0.055160000000     0.549810000000     0.541530000000     0.0531849  
H260     H      0.041080000000     0.487900000000     0.585610000000     0.0524237  
H261     H      0.557180000000     0.395760000000     0.356360000000     0.0504551  
H262     H      0.498540000000     0.381540000000     0.375870000000     0.0514648  
H263     H      0.467830000000     0.330330000000     0.349640000000     0.0503234  
H264     H      0.550770000000     0.350620000000     0.321720000000     0.0502123  
H265     H      0.520520000000     0.315670000000     0.263190000000     0.0511665  
H266     H      0.461030000000     0.286590000000     0.323340000000     0.0548172  
H267     H      0.556670000000     0.374740000000     0.386890000000     0.0540772  
H268     H      0.494160000000     0.359620000000     0.407760000000     0.0548918  
H269     H      0.462200000000     0.301320000000     0.283140000000     0.0507227  
H270     H      0.523790000000     0.301980000000     0.301810000000     0.0549458  
H271     H      0.560420000000     0.199280000000     0.055410000000     0.0515424  
H272     H      0.563430000000     0.161690000000     0.119600000000     0.0517336  
H273     H      0.529680000000     0.159380000000     0.176610000000     0.0502107  
H274     H      0.525670000000     0.212310000000     0.087080000000     0.0501627  
H275     H      0.520130000000     0.232320000000     0.155770000000     0.0524128  
H276     H      0.494430000000     0.169760000000     0.206290000000     0.05306    
H277     H      0.530190000000     0.177900000000     0.044250000000     0.0532384  
H278     H      0.533350000000     0.138580000000     0.111310000000     0.053475   
H279     H      0.522830000000     0.193690000000     0.220130000000     0.0517847  
H280     H      0.491630000000     0.209190000000     0.140720000000     0.0529164  
H281     H      0.111290000000     0.951890000000     0.036610000000     0.0542493  
H282     H      0.173820000000     0.968910000000     0.011500000000     0.0550076  
H283     H      0.201230000000     0.999820000000     0.067480000000     0.0503172  
H284     H      0.118410000000     0.977160000000     0.100880000000     0.0501972  
H285     H      0.144540000000     0.026320000000     0.118290000000     0.0548077  
H286     H      0.207890000000     0.029850000000     0.133120000000     0.0507197  
H287     H      0.112780000000     0.931970000000     0.067270000000     0.0504396  
H288     H      0.171240000000     0.947900000000     0.043830000000     0.0513385  
H289     H      0.207120000000     0.043440000000     0.092730000000     0.0547032  
H290     H      0.149590000000     0.013870000000     0.156890000000     0.0511566  
H291     H      0.169800000000     0.157150000000     0.209380000000     0.0531019  
H292     H      0.179660000000     0.122790000000     0.276550000000     0.0530797  
H293     H      0.148380000000     0.120500000000     0.333810000000     0.050096   
H294     H      0.134580000000     0.166300000000     0.242440000000     0.0501059  
H295     H      0.133330000000     0.189450000000     0.307010000000     0.0534044  
H296     H      0.113780000000     0.132260000000     0.368740000000     0.0515821  
H297     H      0.141450000000     0.131440000000     0.200140000000     0.0515713  
H298     H      0.151010000000     0.097960000000     0.265780000000     0.0523144  
H299     H      0.143970000000     0.155690000000     0.375120000000     0.0531493  
H300     H      0.103550000000     0.164740000000     0.303050000000     0.0520194  
H301     H      0.278450000000     0.151040000000     0.238420000000     0.0519619  
H302     H      0.297150000000     0.171730000000     0.149880000000     0.0524227  
H303     H      0.346810000000     0.179990000000     0.147050000000     0.050403   
H304     H      0.320980000000     0.151460000000     0.269000000000     0.050434   
H305     H      0.372400000000     0.186970000000     0.277630000000     0.0534575  
H306     H      0.389300000000     0.180320000000     0.177600000000     0.0519481  
H307     H      0.276480000000     0.123470000000     0.228100000000     0.0533037  
H308     H      0.295420000000     0.144430000000     0.138420000000     0.0534055  
H309     H      0.391470000000     0.207950000000     0.188150000000     0.0531327  
H310     H      0.370420000000     0.159550000000     0.266220000000     0.0526322  
H311     H      0.817450000000     0.449940000000     0.955260000000     0.0547715  
H312     H      0.879220000000     0.492990000000     0.922510000000     0.0548074  
H313     H      0.873600000000     0.530350000000     0.895440000000     0.0503636  
H314     H      0.791970000000     0.473550000000     0.938620000000     0.0502997  
H315     H      0.782520000000     0.489440000000     0.873980000000     0.0544841  
H316     H      0.844040000000     0.552670000000     0.872640000000     0.0514344  
H317     H      0.825000000000     0.469240000000     0.992390000000     0.0510318  
H318     H      0.882410000000     0.509230000000     0.961960000000     0.05071    
H319     H      0.844050000000     0.532250000000     0.841370000000     0.0546645  
H320     H      0.786320000000     0.512500000000     0.903220000000     0.0507771  
H321     H      0.820440000000     0.492660000000     0.713000000000     0.0531678  
H322     H      0.793430000000     0.511630000000     0.644840000000     0.0532433  
H323     H      0.790610000000     0.482690000000     0.584690000000     0.0500756  
H324     H      0.826410000000     0.456720000000     0.676910000000     0.0501388  
H325     H      0.851750000000     0.456440000000     0.614040000000     0.0532733  
H326     H      0.799430000000     0.447190000000     0.546840000000     0.0514238  
H327     H      0.792100000000     0.466030000000     0.717620000000     0.0515799  
H328     H      0.765950000000     0.484360000000     0.651440000000     0.0522593  
H329     H      0.825400000000     0.476170000000     0.545400000000     0.053225   
H330     H      0.824730000000     0.428250000000     0.612920000000     0.0520525  
H331     H      0.834290000000     0.775210000000     0.544880000000     0.0515752  
H332     H      0.892860000000     0.820470000000     0.526590000000     0.05053    
H333     H      0.886280000000     0.859300000000     0.493070000000     0.0503431  
H334     H      0.803380000000     0.795630000000     0.519780000000     0.0503785  
H335     H      0.797640000000     0.819560000000     0.454370000000     0.0507937  
H336     H      0.859140000000     0.880800000000     0.473860000000     0.0545789  
H337     H      0.829530000000     0.792140000000     0.577410000000     0.0549538  
H338     H      0.892010000000     0.840490000000     0.557760000000     0.0543559  
H339     H      0.856140000000     0.864210000000     0.434860000000     0.0511069  
H340     H      0.796580000000     0.832920000000     0.494850000000     0.0547401  
H341     H      0.869920000000     0.887540000000     0.868010000000     0.0516974  
H342     H      0.828610000000     0.886830000000     0.805880000000     0.0519665  
H343     H      0.826040000000     0.852760000000     0.750160000000     0.0502394  
H344     H      0.884230000000     0.854140000000     0.836170000000     0.0501435  
H345     H      0.902990000000     0.848390000000     0.766250000000     0.0525226  
H346     H      0.837810000000     0.818700000000     0.720550000000     0.0531228  
H347     H      0.849530000000     0.857700000000     0.881170000000     0.0530012  
H348     H      0.806600000000     0.856980000000     0.816720000000     0.0534189  
H349     H      0.860380000000     0.847030000000     0.704610000000     0.0517985  
H350     H      0.881270000000     0.820030000000     0.783230000000     0.0527736  
H351     H      0.824680000000     0.699010000000     0.663200000000     0.0523833  
H352     H      0.853710000000     0.717590000000     0.747240000000     0.0518098  
H353     H      0.855660000000     0.675360000000     0.772050000000     0.0504467  
H354     H      0.815490000000     0.649740000000     0.656050000000     0.0504644  
H355     H      0.790830000000     0.605870000000     0.698070000000     0.0534974  
H356     H      0.846370000000     0.625940000000     0.764780000000     0.0522836  
H357     H      0.850680000000     0.700430000000     0.644500000000     0.0537787  
H358     H      0.880230000000     0.719360000000     0.730010000000     0.0533981  
H359     H      0.820530000000     0.624740000000     0.783650000000     0.0536504  
H360     H      0.817280000000     0.607430000000     0.680930000000     0.0518595  
H361     H      0.047010000000     0.153300000000     0.036520000000     0.0541265  
H362     H      0.032340000000     0.200110000000     0.014240000000     0.0549389  
H363     H      0.003230000000     0.197490000000     0.072150000000     0.0504651  
H364     H      0.023030000000     0.135790000000     0.102110000000     0.0500265  
H365     H      0.974150000000     0.113790000000     0.122240000000     0.0549311  
H366     H      0.973880000000     0.174480000000     0.139020000000     0.050827   
H367     H      0.068650000000     0.174490000000     0.066300000000     0.0503608  
H368     H      0.054860000000     0.218260000000     0.045540000000     0.0514801  
H369     H      0.959020000000     0.160430000000     0.098920000000     0.0550642  
H370     H      0.987970000000     0.131370000000     0.160530000000     0.0510853  
H371     H      0.203390000000     0.171200000000     0.074370000000     0.0548835  
H372     H      0.158460000000     0.109440000000     0.046450000000     0.0543831  
H373     H      0.141540000000     0.117120000000     0.981510000000     0.0502669  
H374     H      0.200940000000     0.198870000000     0.018560000000     0.0502704  
H375     H      0.163170000000     0.204420000000     0.991860000000     0.0547082  
H376     H      0.136790000000     0.148580000000     0.925680000000     0.0512681  
H377     H      0.223040000000     0.169440000000     0.043080000000     0.0512771  
H378     H      0.181080000000     0.111750000000     0.017030000000     0.0505311  
H379     H      0.118140000000     0.142480000000     0.963530000000     0.0550502  
H380     H      0.178480000000     0.205980000000     0.951900000000     0.0506643  
H381     H      0.364470000000     0.547210000000     0.631670000000     0.0544274  
H382     H      0.380970000000     0.502460000000     0.658800000000     0.0546781  
H383     H      0.336370000000     0.464010000000     0.682920000000     0.0503007  
H384     H      0.314610000000     0.523530000000     0.647810000000     0.0502573  
H385     H      0.288260000000     0.505030000000     0.711570000000     0.0543835  
H386     H      0.283600000000     0.441330000000     0.704730000000     0.0514483  
H387     H      0.352180000000     0.529580000000     0.592960000000     0.0511401  
H388     H      0.367720000000     0.487760000000     0.618280000000     0.0507801  
H389     H      0.304400000000     0.459830000000     0.737710000000     0.0549407  
H390     H      0.268430000000     0.483560000000     0.680390000000     0.0505544  
H391     H      0.190950000000     0.503790000000     0.819730000000     0.0512636  
H392     H      0.154450000000     0.448260000000     0.781490000000     0.05076    
H393     H      0.135850000000     0.459410000000     0.714220000000     0.0502459  
H394     H      0.187280000000     0.538160000000     0.768780000000     0.0504017  
H395     H      0.148300000000     0.543280000000     0.731350000000     0.0510453  
H396     H      0.135090000000     0.490980000000     0.662710000000     0.0539285  
H397     H      0.212510000000     0.514030000000     0.784950000000     0.0548812  
H398     H      0.173370000000     0.454460000000     0.743970000000     0.0547276  
H399     H      0.112070000000     0.487530000000     0.692290000000     0.0513774  
H400     H      0.173510000000     0.550160000000     0.704090000000     0.0543507  
H401     H      0.206490000000     0.384400000000     0.901990000000     0.0519183  
H402     H      0.210470000000     0.365100000000     0.814790000000     0.0525333  
H403     H      0.169630000000     0.315270000000     0.812570000000     0.0504248  
H404     H      0.164270000000     0.341870000000     0.932700000000     0.0504409  
H405     H      0.149680000000     0.291520000000     0.943520000000     0.0534328  
H406     H      0.127320000000     0.272810000000     0.843260000000     0.0520109  
H407     H      0.180190000000     0.385080000000     0.889960000000     0.0531493  
H408     H      0.184230000000     0.365560000000     0.801700000000     0.0533753  
H409     H      0.153500000000     0.271950000000     0.855330000000     0.0531422  
H410     H      0.123520000000     0.292180000000     0.930620000000     0.0526176  
H411     H      0.735470000000     0.211720000000     0.893980000000     0.0509072  
H412     H      0.713100000000     0.155460000000     0.855760000000     0.0514621  
H413     H      0.661240000000     0.127790000000     0.881140000000     0.050192   
H414     H      0.692560000000     0.207110000000     0.934860000000     0.050339   
H415     H      0.655360000000     0.173240000000     0.988310000000     0.0511461  
H416     H      0.619680000000     0.123400000000     0.914130000000     0.0549112  
H417     H      0.716550000000     0.218350000000     0.868180000000     0.0542285  
H418     H      0.692810000000     0.158710000000     0.827740000000     0.0542312  
H419     H      0.633430000000     0.117310000000     0.950220000000     0.0508345  
H420     H      0.643090000000     0.183170000000     0.954880000000     0.0545505  
H421     H      0.893430000000     0.380050000000     0.880390000000     0.0513439  
H422     H      0.855210000000     0.399340000000     0.850070000000     0.0506474  
H423     H      0.814830000000     0.355520000000     0.813340000000     0.0503325  
H424     H      0.868750000000     0.328090000000     0.856710000000     0.0502377  
H425     H      0.847100000000     0.298920000000     0.789850000000     0.0509377  
H426     H      0.789070000000     0.306360000000     0.795210000000     0.0545165  
H427     H      0.872100000000     0.359560000000     0.911190000000     0.0547633  
H428     H      0.831250000000     0.380140000000     0.878730000000     0.0544547  
H429     H      0.809170000000     0.318380000000     0.758720000000     0.0513424  
H430     H      0.829630000000     0.285690000000     0.828520000000     0.054643   
H431     H      0.047970000000     0.206360000000     0.501680000000     0.0548644  
H432     H      0.025820000000     0.146310000000     0.462390000000     0.054581   
H433     H      0.976160000000     0.121950000000     0.481060000000     0.0504235  
H434     H      0.005820000000     0.201470000000     0.533120000000     0.0498178  
H435     H      0.973880000000     0.170550000000     0.586400000000     0.0539763  
H436     H      0.932540000000     0.116960000000     0.520140000000     0.0511274  
H437     H      0.034430000000     0.211790000000     0.464660000000     0.0506944  
H438     H      0.013750000000     0.155750000000     0.427990000000     0.0510168  
H439     H      0.951370000000     0.110850000000     0.547070000000     0.054283   
H440     H      0.953770000000     0.173390000000     0.557400000000     0.051524   
H441     H      0.819170000000     0.031150000000     0.616810000000     0.0508865  
H442     H      0.853240000000     0.010500000000     0.658420000000     0.0512507  
H443     H      0.849100000000     0.971570000000     0.608600000000     0.0504159  
H444     H      0.800920000000     0.000980000000     0.550000000000     0.0502231  
H445     H      0.775980000000     0.948590000000     0.528580000000     0.0511058  
H446     H      0.836020000000     0.945720000000     0.544110000000     0.054626   
H447     H      0.839040000000     0.043090000000     0.580060000000     0.0547481  
H448     H      0.875470000000     0.021090000000     0.624550000000     0.0545469  
H449     H      0.809820000000     0.927770000000     0.569880000000     0.0507794  
H450     H      0.799710000000     0.968110000000     0.499820000000     0.0546184  
H451     H      0.054560000000     0.170850000000     0.808480000000     0.0530514  
H452     H      0.012370000000     0.172440000000     0.870940000000     0.0529486  
H453     H      0.965780000000     0.138670000000     0.840960000000     0.0501319  
H454     H      0.022700000000     0.136800000000     0.755630000000     0.0503301  
H455     H      0.984850000000     0.133560000000     0.710220000000     0.0531992  
H456     H      0.933510000000     0.104800000000     0.784870000000     0.0519377  
H457     H      0.047050000000     0.142500000000     0.825710000000     0.0525323  
H458     H      0.005810000000     0.144110000000     0.886970000000     0.0515547  
H459     H      0.942490000000     0.134750000000     0.774100000000     0.0533829  
H460     H      0.974180000000     0.103640000000     0.723460000000     0.0518437  
H461     H      0.802370000000     0.171900000000     0.772910000000     0.0528925  
H462     H      0.831590000000     0.215820000000     0.703850000000     0.0531686  
H463     H      0.851970000000     0.193920000000     0.657930000000     0.0503665  
H464     H      0.812020000000     0.133940000000     0.752060000000     0.0503144  
H465     H      0.855310000000     0.131090000000     0.736330000000     0.0529722  
H466     H      0.861830000000     0.155960000000     0.637220000000     0.0527009  
H467     H      0.779500000000     0.153150000000     0.742500000000     0.0524404  
H468     H      0.808530000000     0.196770000000     0.673890000000     0.0527247  
H469     H      0.884550000000     0.174870000000     0.667710000000     0.0526273  
H470     H      0.832510000000     0.112070000000     0.706030000000     0.0529739  
H471     H      0.292100000000     0.830310000000     0.756530000000     0.0547797  
H472     H      0.309760000000     0.787230000000     0.788550000000     0.0545507  
H473     H      0.359440000000     0.811000000000     0.772030000000     0.0502173  
H474     H      0.336110000000     0.868100000000     0.730290000000     0.0503027  
H475     H      0.367600000000     0.870610000000     0.676230000000     0.05513    
H476     H      0.405120000000     0.850290000000     0.736740000000     0.0504175  
H477     H      0.305280000000     0.846320000000     0.796240000000     0.0506736  
H478     H      0.321810000000     0.806230000000     0.826020000000     0.0510574  
H479     H      0.385130000000     0.827230000000     0.707600000000     0.0544693  
H480     H      0.388800000000     0.890590000000     0.707630000000     0.051146   
H481     H      0.451390000000     0.809750000000     0.635030000000     0.0549422  
H482     H      0.499770000000     0.871390000000     0.658660000000     0.0547927  
H483     H      0.536620000000     0.863840000000     0.684300000000     0.0503477  
H484     H      0.472580000000     0.782440000000     0.653580000000     0.0502529  
H485     H      0.490300000000     0.775330000000     0.718380000000     0.0544518  
H486     H      0.556550000000     0.832600000000     0.709190000000     0.0514376  
H487     H      0.468690000000     0.813550000000     0.596330000000     0.051108   
H488     H      0.513570000000     0.870790000000     0.618230000000     0.0506704  
H489     H      0.538810000000     0.836700000000     0.741330000000     0.0548992  
H490     H      0.511120000000     0.775080000000     0.687770000000     0.0504831  
H491     H      0.695720000000     0.213030000000     0.295370000000     0.0546658  
H492     H      0.711800000000     0.167980000000     0.323420000000     0.054765   
H493     H      0.667330000000     0.130330000000     0.348600000000     0.0503462  
H494     H      0.646070000000     0.189950000000     0.312080000000     0.0502517  
H495     H      0.620190000000     0.172500000000     0.376290000000     0.0543867  
H496     H      0.614850000000     0.108440000000     0.371550000000     0.0512772  
H497     H      0.683270000000     0.195040000000     0.257020000000     0.0511148  
H498     H      0.698290000000     0.153160000000     0.283070000000     0.0506727  
H499     H      0.636180000000     0.127330000000     0.403690000000     0.0550631  
H500     H      0.599920000000     0.150550000000     0.346030000000     0.0504668  
H501     H      0.503060000000     0.123550000000     0.421260000000     0.0546631  
H502     H      0.548320000000     0.185050000000     0.450610000000     0.0549057  
H503     H      0.524990000000     0.210740000000     0.434600000000     0.050235   
H504     H      0.465130000000     0.129470000000     0.396210000000     0.0502873  
H505     H      0.462400000000     0.157680000000     0.341730000000     0.0551535  
H506     H      0.485310000000     0.216640000000     0.400500000000     0.0503579  
H507     H      0.487980000000     0.121480000000     0.461680000000     0.0506969  
H508     H      0.529990000000     0.178620000000     0.488910000000     0.051246   
H509     H      0.507870000000     0.219240000000     0.370670000000     0.0544778  
H510     H      0.443120000000     0.159490000000     0.373680000000     0.0511841  
H511     H      0.615130000000     0.181720000000     0.591310000000     0.0525143  
H512     H      0.658650000000     0.188480000000     0.527200000000     0.0516875  
H513     H      0.700560000000     0.196240000000     0.571110000000     0.0501039  
H514     H      0.640380000000     0.186500000000     0.660350000000     0.0502076  
H515     H      0.687660000000     0.221540000000     0.694290000000     0.0516083  
H516     H      0.724800000000     0.199210000000     0.636570000000     0.0534165  
H517     H      0.610870000000     0.153700000000     0.604840000000     0.053195   
H518     H      0.655510000000     0.160660000000     0.539300000000     0.0530385  
H519     H      0.730610000000     0.228720000000     0.630300000000     0.0518759  
H520     H      0.679900000000     0.191690000000     0.703350000000     0.053251   
H521     H      0.488250000000     0.941650000000     0.520210000000     0.052878   
H522     H      0.490760000000     0.961070000000     0.610320000000     0.0531467  
H523     H      0.504560000000     0.011510000000     0.602140000000     0.050402   
H524     H      0.501160000000     0.985030000000     0.478880000000     0.050415   
H525     H      0.541810000000     0.034870000000     0.477750000000     0.0527231  
H526     H      0.517300000000     0.054730000000     0.561040000000     0.0529936  
H527     H      0.461430000000     0.942520000000     0.513380000000     0.0521887  
H528     H      0.463930000000     0.961890000000     0.603300000000     0.0528562  
H529     H      0.544290000000     0.054120000000     0.567490000000     0.0521021  
H530     H      0.514810000000     0.035340000000     0.470670000000     0.0532629  
H531     H      0.966930000000     0.782800000000     0.629400000000     0.0507062  
H532     H      0.987090000000     0.839340000000     0.662660000000     0.0513287  
H533     H      0.023980000000     0.872270000000     0.607800000000     0.0503607  
H534     H      0.994970000000     0.791700000000     0.560350000000     0.0507435  
H535     H      0.046770000000     0.819990000000     0.534360000000     0.051434   
H536     H      0.047790000000     0.882010000000     0.541360000000     0.0543234  
H537     H      0.952970000000     0.786870000000     0.591620000000     0.054908   
H538     H      0.974740000000     0.847940000000     0.627540000000     0.0552297  
H539     H      0.067450000000     0.877060000000     0.568280000000     0.0509667  
H540     H      0.025810000000     0.821430000000     0.505410000000     0.054182   
H541     H      0.158260000000     0.947840000000     0.507160000000     0.0546723  
H542     H      0.120530000000     0.969340000000     0.465490000000     0.0545376  
H543     H      0.146260000000     0.018730000000     0.482830000000     0.0503858  
H544     H      0.196120000000     0.990010000000     0.537910000000     0.05021    
H545     H      0.197180000000     0.022330000000     0.589690000000     0.0540068  
H546     H      0.185270000000     0.062390000000     0.521370000000     0.0510012  
H547     H      0.177850000000     0.960740000000     0.470310000000     0.0508845  
H548     H      0.142540000000     0.980890000000     0.431320000000     0.0512094  
H549     H      0.159780000000     0.044030000000     0.548180000000     0.0544077  
H550     H      0.220530000000     0.041960000000     0.560520000000     0.0514447  
H551     H      0.283220000000     0.777200000000     0.215730000000     0.0544363  
H552     H      0.308490000000     0.836660000000     0.258090000000     0.0543133  
H553     H      0.341710000000     0.867470000000     0.206320000000     0.0502437  
H554     H      0.308440000000     0.788580000000     0.150290000000     0.0503234  
H555     H      0.358280000000     0.811080000000     0.132450000000     0.0544227  
H556     H      0.370710000000     0.877940000000     0.138480000000     0.050928   
H557     H      0.265580000000     0.785380000000     0.189730000000     0.0508486  
H558     H      0.289230000000     0.841120000000     0.229490000000     0.0512805  
H559     H      0.383110000000     0.870430000000     0.174790000000     0.0546352  
H560     H      0.347350000000     0.822150000000     0.098700000000     0.0512478  
H561     H      0.214560000000     0.689730000000     0.291080000000     0.0546157  
H562     H      0.173120000000     0.708680000000     0.255010000000     0.054923   
H563     H      0.135870000000     0.665990000000     0.225010000000     0.0502665  
H564     H      0.190790000000     0.640850000000     0.272030000000     0.0503025  
H565     H      0.176860000000     0.616810000000     0.205990000000     0.054409   
H566     H      0.113540000000     0.614440000000     0.200190000000     0.0512016  
H567     H      0.193650000000     0.677020000000     0.326530000000     0.0512211  
H568     H      0.155070000000     0.694770000000     0.292970000000     0.0508508  
H569     H      0.135300000000     0.635770000000     0.170680000000     0.0548438  
H570     H      0.152350000000     0.596710000000     0.233140000000     0.0505616  
H571     H      0.313050000000     0.774230000000     0.389890000000     0.0516806  
H572     H      0.271080000000     0.769300000000     0.454230000000     0.0518544  
H573     H      0.302180000000     0.802430000000     0.511980000000     0.0501414  
H574     H      0.360910000000     0.809130000000     0.422330000000     0.0502104  
H575     H      0.386590000000     0.814460000000     0.491010000000     0.0524473  
H576     H      0.347930000000     0.837770000000     0.542500000000     0.053002   
H577     H      0.321290000000     0.804050000000     0.379550000000     0.0531732  
H578     H      0.277550000000     0.798910000000     0.446550000000     0.0533226  
H579     H      0.344030000000     0.809790000000     0.555490000000     0.0517528  
H580     H      0.391480000000     0.842570000000     0.476710000000     0.0530841  
H581     H      0.141050000000     0.860290000000     0.348240000000     0.052656   
H582     H      0.112690000000     0.816300000000     0.416530000000     0.0523516  
H583     H      0.146190000000     0.798170000000     0.425960000000     0.050314   
H584     H      0.185030000000     0.858580000000     0.332090000000     0.050381   
H585     H      0.195900000000     0.821430000000     0.310960000000     0.0527862  
H586     H      0.190250000000     0.796580000000     0.409900000000     0.052811   
H587     H      0.163880000000     0.879570000000     0.378310000000     0.0532159  
H588     H      0.135310000000     0.835270000000     0.447100000000     0.0528361  
H589     H      0.167510000000     0.777230000000     0.379770000000     0.053078   
H590     H      0.218500000000     0.840560000000     0.341420000000     0.0524604  
H591     H      0.651410000000     0.465190000000     0.495620000000     0.0512562  
H592     H      0.635120000000     0.505920000000     0.468840000000     0.0506812  
H593     H      0.665270000000     0.528350000000     0.402440000000     0.0503077  
H594     H      0.688310000000     0.470210000000     0.440000000000     0.0501632  
H595     H      0.733740000000     0.509580000000     0.404680000000     0.0505509  
H596     H      0.696180000000     0.531240000000     0.346910000000     0.0549035  
H597     H      0.638870000000     0.446620000000     0.457820000000     0.0549465  
H598     H      0.621400000000     0.490550000000     0.428910000000     0.0546917  
H599     H      0.717610000000     0.550770000000     0.378450000000     0.051394   
H600     H      0.713390000000     0.487170000000     0.375040000000     0.0543203  
H601     H      0.849050000000     0.445150000000     0.355800000000     0.0507011  
H602     H      0.889090000000     0.502480000000     0.386190000000     0.0514075  
H603     H      0.866200000000     0.531270000000     0.362680000000     0.0503119  
H604     H      0.809480000000     0.450160000000     0.319880000000     0.0502675  
H605     H      0.804920000000     0.482410000000     0.265600000000     0.0511761  
H606     H      0.828270000000     0.536360000000     0.334910000000     0.0546911  
H607     H      0.825570000000     0.441200000000     0.384790000000     0.0545239  
H608     H      0.868260000000     0.502350000000     0.417180000000     0.054605   
H609     H      0.844950000000     0.539530000000     0.295770000000     0.0507513  
H610     H      0.785290000000     0.475040000000     0.302530000000     0.0547972  
H611     H      0.032880000000     0.820350000000     0.955500000000     0.0506366  
H612     H      0.015570000000     0.860470000000     0.929090000000     0.0512541  
H613     H      0.978540000000     0.854690000000     0.984850000000     0.0502823  
H614     H      0.002920000000     0.797440000000     0.021790000000     0.0498555  
H615     H      0.950510000000     0.774130000000     0.045600000000     0.0515942  
H616     H      0.953470000000     0.837130000000     0.049840000000     0.0543822  
H617     H      0.046550000000     0.835870000000     0.995340000000     0.0545725  
H618     H      0.028030000000     0.879040000000     0.966910000000     0.0547809  
H619     H      0.933460000000     0.814820000000     0.019800000000     0.0506978  
H620     H      0.971600000000     0.793740000000     0.077420000000     0.0548416  
H621     H      0.855930000000     0.835080000000     0.159300000000     0.0512423  
H622     H      0.820450000000     0.779460000000     0.120630000000     0.0507617  
H623     H      0.801600000000     0.790240000000     0.053280000000     0.0502154  
H624     H      0.851440000000     0.869050000000     0.108540000000     0.0503756  
H625     H      0.811880000000     0.873190000000     0.070780000000     0.0509407  
H626     H      0.800260000000     0.821500000000     0.001920000000     0.0540791  
H627     H      0.877570000000     0.845790000000     0.124610000000     0.0548481  
H628     H      0.839580000000     0.786180000000     0.083220000000     0.05466    
H629     H      0.776930000000     0.817570000000     0.031230000000     0.0512327  
H630     H      0.837490000000     0.880830000000     0.044010000000     0.0544607  
H631     H      0.061740000000     0.891860000000     0.306400000000     0.0520241  
H632     H      0.017810000000     0.881390000000     0.371050000000     0.051418   
H633     H      0.971210000000     0.846810000000     0.335260000000     0.0500276  
H634     H      0.032580000000     0.861000000000     0.245420000000     0.0502597  
H635     H      0.990610000000     0.853680000000     0.202020000000     0.051628   
H636     H      0.942540000000     0.815640000000     0.277780000000     0.0532323  
H637     H      0.056630000000     0.862450000000     0.310550000000     0.0532129  
H638     H      0.010950000000     0.851560000000     0.377610000000     0.0529138  
H639     H      0.946330000000     0.843820000000     0.266380000000     0.0523778  
H640     H      0.988200000000     0.825840000000     0.211700000000     0.0533829  
H641     H      0.788840000000     0.624490000000     0.267510000000     0.0525155  
H642     H      0.795260000000     0.605510000000     0.181270000000     0.0519799  
H643     H      0.838300000000     0.648180000000     0.152480000000     0.0504414  
H644     H      0.829370000000     0.674290000000     0.271180000000     0.0504712  
H645     H      0.846270000000     0.717570000000     0.228390000000     0.053329   
H646     H      0.878880000000     0.698160000000     0.156250000000     0.0524968  
H647     H      0.814690000000     0.623980000000     0.282560000000     0.0534583  
H648     H      0.821180000000     0.604770000000     0.195330000000     0.0532102  
H649     H      0.852920000000     0.698380000000     0.141040000000     0.0535164  
H650     H      0.872340000000     0.717070000000     0.242270000000     0.0519485  
H651     H      0.622490000000     0.506830000000     0.893040000000     0.0514093  
H652     H      0.600760000000     0.450250000000     0.856750000000     0.0509965  
H653     H      0.644500000000     0.454030000000     0.819460000000     0.0503403  
H654     H      0.675040000000     0.534030000000     0.870250000000     0.0502586  
H655     H      0.704520000000     0.543500000000     0.802880000000     0.0507874  
H656     H      0.694420000000     0.477410000000     0.802450000000     0.054567   
H657     H      0.642070000000     0.503850000000     0.922980000000     0.0542319  
H658     H      0.618920000000     0.443660000000     0.884440000000     0.0544776  
H659     H      0.683150000000     0.486980000000     0.767120000000     0.0511566  
H660     H      0.717250000000     0.537770000000     0.840630000000     0.0545865  
H661     H      0.487460000000     0.366260000000     0.950630000000     0.0509237  
H662     H      0.520700000000     0.344390000000     0.991630000000     0.0512875  
H663     H      0.516640000000     0.306210000000     0.940570000000     0.0503901  
H664     H      0.469700000000     0.337330000000     0.882710000000     0.0502562  
H665     H      0.444270000000     0.285410000000     0.859870000000     0.0514759  
H666     H      0.503580000000     0.281110000000     0.874990000000     0.0543298  
H667     H      0.507840000000     0.378850000000     0.914570000000     0.0547518  
H668     H      0.543330000000     0.355540000000     0.958340000000     0.0545694  
H669     H      0.477490000000     0.263270000000     0.901010000000     0.0511272  
H670     H      0.468400000000     0.304580000000     0.831430000000     0.0538447  
H671     H      0.645890000000     0.440550000000     0.054420000000     0.0515129  
H672     H      0.602770000000     0.432760000000     0.118690000000     0.0519499  
H673     H      0.632790000000     0.464180000000     0.178750000000     0.0501142  
H674     H      0.693110000000     0.474760000000     0.089230000000     0.0501425  
H675     H      0.717980000000     0.478210000000     0.158250000000     0.052342   
H676     H      0.677790000000     0.498960000000     0.211480000000     0.0531146  
H677     H      0.653870000000     0.470590000000     0.046510000000     0.0531156  
H678     H      0.608900000000     0.462450000000     0.113410000000     0.0533681  
H679     H      0.674410000000     0.470890000000     0.222450000000     0.0514884  
H680     H      0.722610000000     0.506540000000     0.145660000000     0.0531215  
H681     H      0.359300000000     0.490210000000     0.166430000000     0.0543229  
H682     H      0.383680000000     0.550560000000     0.205130000000     0.0542206  
H683     H      0.360010000000     0.540390000000     0.271620000000     0.0502736  
H684     H      0.328050000000     0.460240000000     0.220650000000     0.0502083  
H685     H      0.286840000000     0.456510000000     0.252940000000     0.0547842  
H686     H      0.322490000000     0.507360000000     0.325740000000     0.0511835  
H687     H      0.379860000000     0.487390000000     0.194450000000     0.0513362  
H688     H      0.402700000000     0.544050000000     0.230890000000     0.050841   
H689     H      0.310800000000     0.517310000000     0.291470000000     0.0551372  
H690     H      0.300330000000     0.451120000000     0.290080000000     0.0506279  
H691     H      0.495300000000     0.619270000000     0.159750000000     0.0547573  
H692     H      0.450860000000     0.636230000000     0.130800000000     0.0544523  
H693     H      0.474500000000     0.685300000000     0.148850000000     0.0503139  
H694     H      0.533590000000     0.662900000000     0.186160000000     0.0502642  
H695     H      0.536600000000     0.693640000000     0.241620000000     0.0547873  
H696     H      0.514160000000     0.730380000000     0.183850000000     0.0506531  
H697     H      0.511100000000     0.633030000000     0.120090000000     0.0509171  
H698     H      0.469640000000     0.649000000000     0.093120000000     0.0511935  
H699     H      0.491800000000     0.710310000000     0.213890000000     0.0544849  
H700     H      0.556130000000     0.714700000000     0.209770000000     0.0515085  
H701     H      0.320990000000     0.490170000000     0.873440000000     0.0532094  
H702     H      0.275940000000     0.483670000000     0.938030000000     0.0531439  
H703     H      0.305350000000     0.515790000000     0.994360000000     0.0501036  
H704     H      0.365970000000     0.524980000000     0.906310000000     0.050185   
H705     H      0.389460000000     0.527240000000     0.972460000000     0.0531779  
H706     H      0.352330000000     0.550000000000     0.029320000000     0.0516154  
H707     H      0.324850000000     0.518310000000     0.861620000000     0.051614   
H708     H      0.281040000000     0.512040000000     0.924710000000     0.0524305  
H709     H      0.344420000000     0.520090000000     0.038170000000     0.0529686  
H710     H      0.395780000000     0.556890000000     0.965820000000     0.0520266  
H711     H      0.553660000000     0.509630000000     0.006880000000     0.0523581  
H712     H      0.525530000000     0.466390000000     0.075990000000     0.0525899  
H713     H      0.481450000000     0.468140000000     0.091700000000     0.0503205  
H714     H      0.520050000000     0.527610000000     0.996570000000     0.0503621  
H715     H      0.498610000000     0.548900000000     0.041870000000     0.0532461  
H716     H      0.447840000000     0.485880000000     0.081370000000     0.0524527  
H717     H      0.530980000000     0.490430000000     0.976560000000     0.0529675  
H718     H      0.502560000000     0.446760000000     0.046370000000     0.0532477  
H719     H      0.470390000000     0.505420000000     0.111570000000     0.0527472  
H720     H      0.475960000000     0.529180000000     0.011940000000     0.0528426  
N1       N      0.726310000000     0.860820000000     0.401770000000    -0.150948   
N2       N      0.611190000000     0.794140000000     0.351980000000    -0.151164   
N3       N      0.876310000000     0.038170000000     0.233300000000    -0.151388   
N4       N      0.836620000000     0.952120000000     0.355280000000    -0.151267   
N5       N      0.858390000000     0.129560000000     0.188790000000    -0.151004   
N6       N      0.813470000000     0.198800000000     0.233400000000    -0.150955   
N7       N      0.459950000000     0.621310000000     0.518170000000    -0.151254   
N8       N      0.499690000000     0.705470000000     0.393260000000    -0.151248   
N9       N      0.481400000000     0.532840000000     0.566570000000    -0.150914   
N10      N      0.522480000000     0.460340000000     0.522040000000    -0.150963   
N11      N      0.146100000000     0.868190000000     0.899820000000    -0.151052   
N12      N      0.191430000000     0.799820000000     0.852080000000    -0.150906   
N13      N      0.537800000000     0.367250000000     0.563730000000    -0.151306   
N14      N      0.500210000000     0.280760000000     0.684680000000    -0.151451   
N15      N      0.126570000000     0.958730000000     0.858950000000    -0.151387   
N16      N      0.162790000000     0.044360000000     0.736900000000    -0.151517   
N17      N      0.389560000000     0.194620000000     0.736280000000    -0.150823   
N18      N      0.274030000000     0.129990000000     0.687660000000    -0.150866   
N19      N      0.837020000000     0.372760000000     0.061300000000    -0.151183   
N20      N      0.793140000000     0.287710000000     0.185030000000    -0.1512     
N21      N      0.213870000000     0.711730000000     0.897950000000    -0.151234   
N22      N      0.173730000000     0.626170000000     0.020740000000    -0.151326   
N23      N      0.063930000000     0.532390000000     0.064740000000    -0.151157   
N24      N      0.948710000000     0.462560000000     0.017400000000    -0.151143   
N25      N      0.520950000000     0.706840000000     0.791850000000    -0.151181   
N26      N      0.480080000000     0.612150000000     0.686940000000    -0.150874   
N27      N      0.819450000000     0.956650000000     0.962980000000    -0.151527   
N28      N      0.862750000000     0.052620000000     0.065370000000    -0.150786   
N29      N      0.724620000000     0.855580000000     0.905780000000    -0.150723   
N30      N      0.609460000000     0.809940000000     0.858250000000    -0.151027   
N31      N      0.524710000000     0.133350000000     0.902540000000    -0.15098    
N32      N      0.481000000000     0.184740000000     0.798700000000    -0.151457   
N33      N      0.476580000000     0.858640000000     0.186450000000    -0.150796   
N34      N      0.520500000000     0.808020000000     0.291330000000    -0.151302   
N35      N      0.452170000000     0.827960000000     0.017300000000    -0.151473   
N36      N      0.497240000000     0.787640000000     0.894380000000    -0.151272   
N37      N      0.477670000000     0.938930000000     0.065680000000    -0.15085    
N38      N      0.525590000000     0.053840000000     0.022020000000    -0.150825   
N39      N      0.162090000000     0.527680000000     0.118190000000    -0.151451   
N40      N      0.203290000000     0.476430000000     0.226560000000    -0.150768   
N41      N      0.183730000000     0.141420000000     0.623180000000    -0.151432   
N42      N      0.142570000000     0.194720000000     0.518390000000    -0.150858   
N43      N      0.190270000000     0.390790000000     0.355480000000    -0.150975   
N44      N      0.144770000000     0.276120000000     0.398670000000    -0.150945   
N45      N      0.150850000000     0.625170000000     0.628420000000    -0.151451   
N46      N      0.193440000000     0.721200000000     0.730890000000    -0.150882   
N47      N      0.209190000000     0.500210000000     0.395110000000    -0.151286   
N48      N      0.169430000000     0.546910000000     0.516310000000    -0.151276   
N49      N      0.851680000000     0.370730000000     0.460370000000    -0.151417   
N50      N      0.810190000000     0.276700000000     0.354040000000    -0.1509     
N51      N      0.058680000000     0.523330000000     0.567840000000    -0.150808   
N52      N      0.942590000000     0.474380000000     0.523350000000    -0.150781   
N53      N      0.488050000000     0.291040000000     0.287350000000    -0.151137   
N54      N      0.530320000000     0.384330000000     0.395070000000    -0.150822   
N55      N      0.501750000000     0.203880000000     0.191200000000    -0.151257   
N56      N      0.549320000000     0.164300000000     0.071020000000    -0.151407   
N57      N      0.180940000000     0.038730000000     0.130470000000    -0.151225   
N58      N      0.138380000000     0.943540000000     0.026670000000    -0.150681   
N59      N      0.121230000000     0.165640000000     0.350030000000    -0.15128    
N60      N      0.165820000000     0.124720000000     0.227110000000    -0.151242   
N61      N      0.391390000000     0.187990000000     0.231850000000    -0.151069   
N62      N      0.276360000000     0.143220000000     0.184240000000    -0.151055   
N63      N      0.809870000000     0.524110000000     0.859960000000    -0.150778   
N64      N      0.854580000000     0.473590000000     0.963240000000    -0.151489   
N65      N      0.830580000000     0.449650000000     0.568350000000    -0.151445   
N66      N      0.790820000000     0.494170000000     0.692870000000    -0.151162   
N67      N      0.823520000000     0.855790000000     0.458950000000    -0.151586   
N68      N      0.865820000000     0.804260000000     0.564920000000    -0.150758   
N69      N      0.873360000000     0.828220000000     0.733060000000    -0.151259   
N70      N      0.833850000000     0.874920000000     0.854700000000    -0.151353   
N71      N      0.814380000000     0.605570000000     0.736250000000    -0.150963   
N72      N      0.856560000000     0.719510000000     0.691920000000    -0.151062   
N73      N      0.963240000000     0.138370000000     0.135560000000    -0.151332   
N74      N      0.057010000000     0.189080000000     0.027140000000    -0.150832   
N75      N      0.142280000000     0.178880000000     0.953070000000    -0.151079   
N76      N      0.193920000000     0.136470000000     0.058510000000    -0.150808   
N77      N      0.279290000000     0.469580000000     0.721510000000    -0.150897   
N78      N      0.376800000000     0.523510000000     0.620290000000    -0.151679   
N79      N      0.140010000000     0.522760000000     0.685220000000    -0.150997   
N80      N      0.189660000000     0.476750000000     0.788160000000    -0.15121    
N81      N      0.132440000000     0.271750000000     0.897890000000    -0.151189   
N82      N      0.201310000000     0.385400000000     0.847360000000    -0.151227   
N83      N      0.627830000000     0.145930000000     0.958440000000    -0.151352   
N84      N      0.721240000000     0.190660000000     0.848600000000    -0.15085    
N85      N      0.811750000000     0.292220000000     0.787230000000    -0.151433   
N86      N      0.865580000000     0.386400000000     0.893160000000    -0.150865   
N87      N      0.945950000000     0.138350000000     0.565370000000    -0.151023   
N88      N      0.040690000000     0.183470000000     0.458040000000    -0.15148    
N89      N      0.803510000000     0.940730000000     0.522910000000    -0.151028   
N90      N      0.853670000000     0.036630000000     0.625680000000    -0.151403   
N91      N      0.951340000000     0.116690000000     0.736280000000    -0.151457   
N92      N      0.038140000000     0.162850000000     0.858600000000    -0.151341   
N93      N      0.864420000000     0.138900000000     0.682720000000    -0.150863   
N94      N      0.799780000000     0.189130000000     0.727620000000    -0.150906   
N95      N      0.393250000000     0.861930000000     0.693840000000    -0.150888   
N96      N      0.296760000000     0.810730000000     0.797000000000    -0.151677   
N97      N      0.526750000000     0.801020000000     0.727400000000    -0.150634   
N98      N      0.476870000000     0.845320000000     0.621850000000    -0.151298   
N99      N      0.611120000000     0.137180000000     0.387530000000    -0.150846   
N100     N      0.707810000000     0.189030000000     0.284670000000    -0.151585   
N101     N      0.472340000000     0.192420000000     0.358390000000    -0.150814   
N102     N      0.524180000000     0.148570000000     0.460460000000    -0.151374   
N103     N      0.713250000000     0.212740000000     0.677880000000    -0.151587   
N104     N      0.627000000000     0.165560000000     0.554950000000    -0.151234   
N105     N      0.535270000000     0.055130000000     0.514440000000    -0.15118    
N106     N      0.470170000000     0.941430000000     0.566570000000    -0.151194   
N107     N      0.053580000000     0.854490000000     0.524330000000    -0.150752   
N108     N      0.960140000000     0.810910000000     0.633690000000    -0.151027   
N109     N      0.192940000000     0.049640000000     0.567420000000    -0.150898   
N110     N      0.142990000000     0.954580000000     0.462530000000    -0.151452   
N111     N      0.374900000000     0.848480000000     0.129790000000    -0.151427   
N112     N      0.279690000000     0.805460000000     0.235970000000    -0.15092    
N113     N      0.142580000000     0.609540000000     0.189270000000    -0.150912   
N114     N      0.190770000000     0.702760000000     0.297320000000    -0.15141    
N115     N      0.375670000000     0.831670000000     0.526990000000    -0.151254   
N116     N      0.288130000000     0.784020000000     0.405940000000    -0.151536   
N117     N      0.199040000000     0.804520000000     0.356240000000    -0.150891   
N118     N      0.132320000000     0.852370000000     0.401920000000    -0.150946   
N119     N      0.721830000000     0.522210000000     0.363090000000    -0.150747   
N120     N      0.626210000000     0.470220000000     0.468000000000    -0.151025   
N121     N      0.809040000000     0.511780000000     0.294200000000    -0.151168   
N122     N      0.860430000000     0.468560000000     0.398930000000    -0.150653   
N123     N      0.945520000000     0.802180000000     0.061190000000    -0.150789   
N124     N      0.041170000000     0.855870000000     0.956350000000    -0.151188   
N125     N      0.804450000000     0.853020000000     0.024440000000    -0.151078   
N126     N      0.855360000000     0.808420000000     0.127600000000    -0.151321   
N127     N      0.958990000000     0.829260000000     0.228510000000    -0.151128   
N128     N      0.044290000000     0.874240000000     0.353120000000    -0.151622   
N129     N      0.868560000000     0.718180000000     0.187310000000    -0.151105   
N130     N      0.798880000000     0.604300000000     0.236270000000    -0.151199   
N131     N      0.710020000000     0.514620000000     0.797380000000    -0.151521   
N132     N      0.614050000000     0.471680000000     0.901930000000    -0.150803   
N133     N      0.471140000000     0.276580000000     0.854410000000    -0.151047   
N134     N      0.521740000000     0.371290000000     0.960030000000    -0.151481   
N135     N      0.706220000000     0.494090000000     0.195290000000    -0.151228   
N136     N      0.620390000000     0.449300000000     0.071510000000    -0.151489   
N137     N      0.294900000000     0.480010000000     0.296050000000    -0.151049   
N138     N      0.387950000000     0.522480000000     0.186120000000    -0.15088    
N139     N      0.527340000000     0.718910000000     0.225320000000    -0.150731   
N140     N      0.474990000000     0.624100000000     0.120390000000    -0.151437   
N141     N      0.377950000000     0.541140000000     0.013260000000    -0.151575   
N142     N      0.292740000000     0.495620000000     0.888540000000    -0.151171   
N143     N      0.467130000000     0.521750000000     0.065700000000    -0.150904   
N144     N      0.534010000000     0.473700000000     0.022140000000    -0.150796   
O1       O      0.414560000000     0.549830000000     0.032660000000    -0.249585   
O2       O      0.400120000000     0.519760000000     0.131270000000    -0.243579   
O3       O      0.439960000000     0.595340000000     0.097100000000    -0.24995    
O4       O      0.456140000000     0.549230000000     0.058650000000    -0.244981   
O5       O      0.439530000000     0.523810000000     0.099720000000    -0.245849   
O6       O      0.464810000000     0.585660000000     0.115780000000    -0.251108   
O7       O      0.388550000000     0.545350000000     0.070730000000    -0.25162    
O8       O      0.414390000000     0.554150000000     0.153960000000    -0.250414   
O9       O      0.584020000000     0.441740000000     0.052650000000    -0.248611   
O10      O      0.560800000000     0.470920000000     0.987120000000    -0.245339   
O11      O      0.555360000000     0.397540000000     0.989390000000    -0.250226   
O12      O      0.586720000000     0.439860000000     0.932910000000    -0.249878   
O13      O      0.599930000000     0.474180000000     0.955400000000    -0.243239   
O14      O      0.535230000000     0.410570000000     0.963390000000    -0.251616   
O15      O      0.609960000000     0.446710000000     0.014140000000    -0.251899   
O16      O      0.543930000000     0.445340000000     0.027920000000    -0.246189   
O17      O      0.920040000000     0.807830000000     0.211710000000    -0.244542   
O18      O      0.930740000000     0.782480000000     0.112560000000    -0.242127   
O19      O      0.890020000000     0.815920000000     0.153590000000    -0.248191   
O20      O      0.884770000000     0.757530000000     0.196990000000    -0.24967    
O21      O      0.888790000000     0.746380000000     0.146070000000    -0.245878   
O22      O      0.868130000000     0.782090000000     0.129880000000    -0.252558   
O23      O      0.946850000000     0.812980000000     0.174560000000    -0.251994   
O24      O      0.921060000000     0.807870000000     0.097190000000    -0.250428   
O25      O      0.773790000000     0.504890000000     0.271190000000    -0.248124   
O26      O      0.736190000000     0.541110000000     0.311080000000    -0.242114   
O27      O      0.745270000000     0.514470000000     0.211820000000    -0.245185   
O28      O      0.781820000000     0.564880000000     0.226330000000    -0.249515   
O29      O      0.778180000000     0.576170000000     0.277360000000    -0.246065   
O30      O      0.718950000000     0.510750000000     0.248890000000    -0.252301   
O31      O      0.798220000000     0.539570000000     0.290350000000    -0.252534   
O32      O      0.745520000000     0.515530000000     0.326840000000    -0.25016    
O33      O      0.224960000000     0.730740000000     0.323590000000    -0.250245   
O34      O      0.252140000000     0.773300000000     0.266170000000    -0.250403   
O35      O      0.251690000000     0.776390000000     0.387320000000    -0.249076   
O36      O      0.209860000000     0.776820000000     0.362170000000    -0.245362   
O37      O      0.226510000000     0.802660000000     0.321620000000    -0.245972   
O38      O      0.276900000000     0.779500000000     0.348750000000    -0.25142    
O39      O      0.201770000000     0.741450000000     0.301310000000    -0.251071   
O40      O      0.266760000000     0.807170000000     0.290720000000    -0.244187   
O41      O      0.054820000000     0.876690000000     0.410430000000    -0.252013   
O42      O      0.066960000000     0.851450000000     0.470540000000    -0.242905   
O43      O      0.109100000000     0.927510000000     0.434530000000    -0.249998   
O44      O      0.122120000000     0.880530000000     0.396520000000    -0.246364   
O45      O      0.105140000000     0.854570000000     0.436790000000    -0.245409   
O46      O      0.130510000000     0.915510000000     0.459330000000    -0.251527   
O47      O      0.081200000000     0.883370000000     0.371730000000    -0.248898   
O48      O      0.079510000000     0.886040000000     0.491560000000    -0.250016   
O49      O      0.587930000000     0.145100000000     0.538660000000    -0.244512   
O50      O      0.596530000000     0.118140000000     0.439370000000    -0.243458   
O51      O      0.559910000000     0.155030000000     0.480590000000    -0.248421   
O52      O      0.554150000000     0.094590000000     0.525180000000    -0.24964    
O53      O      0.552670000000     0.083230000000     0.472220000000    -0.246024   
O54      O      0.534330000000     0.120250000000     0.463200000000    -0.252412   
O55      O      0.614160000000     0.148560000000     0.501550000000    -0.251678   
O56      O      0.587610000000     0.144050000000     0.423900000000    -0.250531   
O57      O      0.441450000000     0.840110000000     0.602510000000    -0.248512   
O58      O      0.416750000000     0.854440000000     0.658420000000    -0.250521   
O59      O      0.414870000000     0.851320000000     0.542760000000    -0.245048   
O60      O      0.450370000000     0.901920000000     0.555850000000    -0.249546   
O61      O      0.451930000000     0.913460000000     0.608720000000    -0.246794   
O62      O      0.389200000000     0.848950000000     0.580030000000    -0.251694   
O63      O      0.468750000000     0.874990000000     0.616780000000    -0.252091   
O64      O      0.407080000000     0.879400000000     0.640820000000    -0.243356   
O65      O      0.940390000000     0.110650000000     0.678910000000    -0.251298   
O66      O      0.891950000000     0.136530000000     0.648950000000    -0.24526    
O67      O      0.887430000000     0.063620000000     0.654040000000    -0.249938   
O68      O      0.918620000000     0.106270000000     0.595920000000    -0.250274   
O69      O      0.931740000000     0.140390000000     0.618960000000    -0.244593   
O70      O      0.866890000000     0.075900000000     0.627280000000    -0.25143    
O71      O      0.916080000000     0.111250000000     0.715890000000    -0.24942    
O72      O      0.874510000000     0.110730000000     0.689360000000    -0.245532   
O73      O      0.749670000000     0.220550000000     0.696830000000    -0.249206   
O74      O      0.734320000000     0.188640000000     0.794120000000    -0.243596   
O75      O      0.776860000000     0.265000000000     0.761660000000    -0.25009    
O76      O      0.790110000000     0.217660000000     0.721790000000    -0.245344   
O77      O      0.773010000000     0.192020000000     0.762460000000    -0.245553   
O78      O      0.799620000000     0.253280000000     0.782460000000    -0.251264   
O79      O      0.723820000000     0.215960000000     0.735260000000    -0.251853   
O80      O      0.748210000000     0.222750000000     0.817640000000    -0.250052   
O81      O      0.224190000000     0.483640000000     0.813850000000    -0.247855   
O82      O      0.221050000000     0.413460000000     0.805760000000    -0.245947   
O83      O      0.253820000000     0.475600000000     0.871320000000    -0.244291   
O84      O      0.255170000000     0.475620000000     0.757750000000    -0.250561   
O85      O      0.263710000000     0.449260000000     0.772180000000    -0.242443   
O86      O      0.280290000000     0.478610000000     0.835090000000    -0.252162   
O87      O      0.201740000000     0.449870000000     0.790280000000    -0.25253    
O88      O      0.218540000000     0.424830000000     0.857290000000    -0.250256   
O89      O      0.106510000000     0.172100000000     0.932480000000    -0.246731   
O90      O      0.071200000000     0.209040000000     0.975840000000    -0.242206   
O91      O      0.077050000000     0.180140000000     0.875420000000    -0.245246   
O92      O      0.114500000000     0.232270000000     0.887850000000    -0.250467   
O93      O      0.112470000000     0.243790000000     0.939510000000    -0.245945   
O94      O      0.052250000000     0.181620000000     0.910560000000    -0.252453   
O95      O      0.131960000000     0.207050000000     0.949530000000    -0.252407   
O96      O      0.078960000000     0.181850000000     0.988150000000    -0.250821   
O97      O      0.894700000000     0.811120000000     0.715880000000    -0.245267   
O98      O      0.863170000000     0.747790000000     0.651880000000    -0.245202   
O99      O      0.932670000000     0.818190000000     0.658550000000    -0.246432   
O100     O      0.894900000000     0.811120000000     0.604160000000    -0.250655   
O101     O      0.859420000000     0.782840000000     0.614750000000    -0.24118    
O102     O      0.920620000000     0.783820000000     0.637230000000    -0.252881   
O103     O      0.868280000000     0.809600000000     0.681000000000    -0.252978   
O104     O      0.880270000000     0.758900000000     0.701820000000    -0.250446   
O105     O      0.793570000000     0.507960000000     0.748250000000    -0.251981   
O106     O      0.778260000000     0.517530000000     0.826330000000    -0.249906   
O107     O      0.736950000000     0.507140000000     0.771160000000    -0.249764   
O108     O      0.790010000000     0.566250000000     0.726610000000    -0.248049   
O109     O      0.807390000000     0.577200000000     0.776370000000    -0.245435   
O110     O      0.749630000000     0.541320000000     0.793470000000    -0.253023   
O111     O      0.776900000000     0.518270000000     0.709580000000    -0.245297   
O112     O      0.813380000000     0.542190000000     0.807630000000    -0.242556   
O113     O      0.186450000000     0.106740000000     0.210890000000    -0.245484   
O114     O      0.186790000000     0.106240000000     0.094980000000    -0.250274   
O115     O      0.209920000000     0.077320000000     0.134960000000    -0.2525     
O116     O      0.236580000000     0.121650000000     0.195550000000    -0.248979   
O117     O      0.247630000000     0.133880000000     0.143140000000    -0.245907   
O118     O      0.174550000000     0.067670000000     0.150620000000    -0.24839    
O119     O      0.181530000000     0.127770000000     0.172920000000    -0.252088   
O120     O      0.212650000000     0.141410000000     0.110840000000    -0.242752   
O121     O      0.482830000000     0.223680000000     0.206990000000    -0.245732   
O122     O      0.419880000000     0.196640000000     0.273030000000    -0.246211   
O123     O      0.493810000000     0.261600000000     0.267650000000    -0.2477     
O124     O      0.480160000000     0.222950000000     0.322120000000    -0.250299   
O125     O      0.453970000000     0.188000000000     0.305900000000    -0.242422   
O126     O      0.458340000000     0.252880000000     0.281120000000    -0.252313   
O127     O      0.483970000000     0.199850000000     0.243930000000    -0.252254   
O128     O      0.431250000000     0.208920000000     0.220710000000    -0.249285   
O129     O      0.856560000000     0.438040000000     0.551020000000    -0.247622   
O130     O      0.878470000000     0.472340000000     0.451580000000    -0.241706   
O131     O      0.843640000000     0.396760000000     0.487640000000    -0.249375   
O132     O      0.903560000000     0.446120000000     0.529460000000    -0.246983   
O133     O      0.913220000000     0.470230000000     0.486540000000    -0.244832   
O134     O      0.878200000000     0.410020000000     0.464950000000    -0.252351   
O135     O      0.841870000000     0.450140000000     0.511880000000    -0.252581   
O136     O      0.853990000000     0.437460000000     0.432850000000    -0.249546   
O137     O      0.163890000000     0.552370000000     0.573630000000    -0.251102   
O138     O      0.088290000000     0.526400000000     0.603130000000    -0.244937   
O139     O      0.158260000000     0.599040000000     0.600030000000    -0.250051   
O140     O      0.123970000000     0.521540000000     0.631730000000    -0.244765   
O141     O      0.145690000000     0.555300000000     0.655920000000    -0.250339   
O142     O      0.124340000000     0.585840000000     0.624790000000    -0.252007   
O143     O      0.139470000000     0.552170000000     0.536100000000    -0.248354   
O144     O      0.097840000000     0.550890000000     0.560670000000    -0.245024   
O145     O      0.067900000000     0.176790000000     0.430840000000    -0.250478   
O146     O      0.139550000000     0.247150000000     0.436550000000    -0.246036   
O147     O      0.112260000000     0.193270000000     0.367920000000    -0.246331   
O148     O      0.145130000000     0.210690000000     0.464490000000    -0.244127   
O149     O      0.110540000000     0.190150000000     0.487820000000    -0.250006   
O150     O      0.118930000000     0.174160000000     0.407110000000    -0.251225   
O151     O      0.080160000000     0.210620000000     0.454150000000    -0.25243    
O152     O      0.118920000000     0.237070000000     0.389380000000    -0.24622    
O153     O      0.230250000000     0.482720000000     0.378390000000    -0.245779   
O154     O      0.196370000000     0.419310000000     0.316200000000    -0.244738   
O155     O      0.268320000000     0.488160000000     0.321910000000    -0.246126   
O156     O      0.231330000000     0.483340000000     0.267700000000    -0.250539   
O157     O      0.195920000000     0.454180000000     0.275730000000    -0.24055    
O158     O      0.255080000000     0.453970000000     0.299110000000    -0.252815   
O159     O      0.203970000000     0.481270000000     0.343300000000    -0.253353   
O160     O      0.216250000000     0.429960000000     0.364040000000    -0.25022    
O161     O      0.400810000000     0.841020000000     0.100240000000    -0.249978   
O162     O      0.475520000000     0.909680000000     0.100170000000    -0.245171   
O163     O      0.449470000000     0.835750000000     0.074630000000    -0.251806   
O164     O      0.444180000000     0.853190000000     0.155980000000    -0.249783   
O165     O      0.478630000000     0.874540000000     0.132650000000    -0.243307   
O166     O      0.445480000000     0.856960000000     0.036020000000    -0.249162   
O167     O      0.414650000000     0.874490000000     0.125630000000    -0.251595   
O168     O      0.448660000000     0.900380000000     0.060970000000    -0.246147   
O169     O      0.601380000000     0.152660000000     0.987900000000    -0.250126   
O170     O      0.557390000000     0.138410000000     0.931740000000    -0.250284   
O171     O      0.553600000000     0.157460000000     0.013840000000    -0.251496   
O172     O      0.554270000000     0.092510000000     0.027080000000    -0.245755   
O173     O      0.527380000000     0.083050000000     0.987860000000    -0.245766   
O174     O      0.555530000000     0.134960000000     0.052380000000    -0.249155   
O175     O      0.588330000000     0.119080000000     0.963230000000    -0.25138    
O176     O      0.523390000000     0.118480000000     0.956880000000    -0.244249   
O177     O      0.828930000000     0.881310000000     0.911890000000    -0.250728   
O178     O      0.753540000000     0.858600000000     0.942630000000    -0.245474   
O179     O      0.825880000000     0.928820000000     0.938220000000    -0.250333   
O180     O      0.810190000000     0.885480000000     0.994850000000    -0.250759   
O181     O      0.789280000000     0.851750000000     0.970210000000    -0.24567    
O182     O      0.791280000000     0.917810000000     0.959040000000    -0.252214   
O183     O      0.804480000000     0.881080000000     0.874410000000    -0.247899   
O184     O      0.764190000000     0.881060000000     0.897500000000    -0.244552   
O185     O      0.518080000000     0.769800000000     0.878340000000    -0.246001   
O186     O      0.547260000000     0.806240000000     0.778100000000    -0.240375   
O187     O      0.512270000000     0.732400000000     0.819180000000    -0.247492   
O188     O      0.569970000000     0.782940000000     0.863990000000    -0.249584   
O189     O      0.581320000000     0.804810000000     0.818300000000    -0.244741   
O190     O      0.546760000000     0.746330000000     0.795850000000    -0.252862   
O191     O      0.515180000000     0.792680000000     0.841540000000    -0.253194   
O192     O      0.519010000000     0.771330000000     0.765370000000    -0.249724   
O193     O      0.167280000000     0.563030000000     0.100410000000    -0.249722   
O194     O      0.092640000000     0.552590000000     0.105570000000    -0.246699   
O195     O      0.151790000000     0.587490000000     0.036670000000    -0.245951   
O196     O      0.150400000000     0.585880000000     0.155210000000    -0.250067   
O197     O      0.126640000000     0.596650000000     0.135110000000    -0.24358    
O198     O      0.160250000000     0.613750000000     0.075970000000    -0.251732   
O199     O      0.131800000000     0.535020000000     0.111070000000    -0.25286    
O200     O      0.103690000000     0.551420000000     0.053150000000    -0.247604   
O201     O      0.860420000000     0.411210000000     0.045010000000    -0.244833   
O202     O      0.919870000000     0.443480000000     0.976290000000    -0.246437   
O203     O      0.847870000000     0.438560000000     0.985290000000    -0.249707   
O204     O      0.859910000000     0.411310000000     0.927720000000    -0.250249   
O205     O      0.883540000000     0.399880000000     0.946070000000    -0.243682   
O206     O      0.882760000000     0.462990000000     0.966060000000    -0.252645   
O207     O      0.850810000000     0.384530000000     0.005990000000    -0.251438   
O208     O      0.909010000000     0.445110000000     0.028630000000    -0.248428   
O209     O      0.169440000000     0.054630000000     0.679340000000    -0.251742   
O210     O      0.244390000000     0.102740000000     0.652950000000    -0.244968   
O211     O      0.175560000000     0.107870000000     0.652280000000    -0.249946   
O212     O      0.208870000000     0.064120000000     0.621130000000    -0.24401    
O213     O      0.187510000000     0.076520000000     0.597110000000    -0.25014    
O214     O      0.209640000000     0.128050000000     0.627570000000    -0.251585   
O215     O      0.192230000000     0.080000000000     0.717180000000    -0.249317   
O216     O      0.235310000000     0.120400000000     0.691800000000    -0.24571    
O217     O      0.495070000000     0.270140000000     0.742170000000    -0.251351   
O218     O      0.475840000000     0.248960000000     0.825580000000    -0.250297   
O219     O      0.488450000000     0.217900000000     0.769090000000    -0.249987   
O220     O      0.428370000000     0.204610000000     0.731540000000    -0.245486   
O221     O      0.419330000000     0.222370000000     0.770300000000    -0.245345   
O222     O      0.454920000000     0.197950000000     0.795330000000    -0.251257   
O223     O      0.469980000000     0.245860000000     0.705220000000    -0.249569   
O224     O      0.455700000000     0.262340000000     0.800390000000    -0.244708   
O225     O      0.214390000000     0.722840000000     0.841460000000    -0.250872   
O226     O      0.190990000000     0.734800000000     0.784680000000    -0.244955   
O227     O      0.267690000000     0.775790000000     0.819470000000    -0.250971   
O228     O      0.214130000000     0.783310000000     0.862980000000    -0.246368   
O229     O      0.199740000000     0.779670000000     0.811430000000    -0.246585   
O230     O      0.257680000000     0.800020000000     0.800050000000    -0.252676   
O231     O      0.224910000000     0.749160000000     0.881270000000    -0.24468    
O232     O      0.225600000000     0.748450000000     0.761730000000    -0.250285   
O233     O      0.107360000000     0.920120000000     0.875750000000    -0.245267   
O234     O      0.137620000000     0.887870000000     0.941000000000    -0.245871   
O235     O      0.069800000000     0.891360000000     0.934740000000    -0.247566   
O236     O      0.108270000000     0.919860000000     0.989590000000    -0.250364   
O237     O      0.143870000000     0.929220000000     0.975390000000    -0.242055   
O238     O      0.080350000000     0.867060000000     0.952150000000    -0.252398   
O239     O      0.131970000000     0.946070000000     0.911550000000    -0.252426   
O240     O      0.123480000000     0.884910000000     0.889440000000    -0.249667   
O241     O      0.559280000000     0.405740000000     0.546530000000    -0.245564   
O242     O      0.559600000000     0.406810000000     0.434010000000    -0.250768   
O243     O      0.587140000000     0.459560000000     0.471410000000    -0.252402   
O244     O      0.544500000000     0.443030000000     0.532900000000    -0.250106   
O245     O      0.529870000000     0.439470000000     0.481540000000    -0.24581    
O246     O      0.597040000000     0.434830000000     0.489150000000    -0.246606   
O247     O      0.532530000000     0.380840000000     0.511870000000    -0.252744   
O248     O      0.524030000000     0.398700000000     0.445690000000    -0.241676   
O249     O      0.415650000000     0.533540000000     0.616090000000    -0.252503   
O250     O      0.448100000000     0.584760000000     0.655980000000    -0.250407   
O251     O      0.459300000000     0.610750000000     0.575020000000    -0.250662   
O252     O      0.459000000000     0.549600000000     0.555190000000    -0.246102   
O253     O      0.473930000000     0.554020000000     0.606500000000    -0.246667   
O254     O      0.449080000000     0.584110000000     0.535810000000    -0.24526    
O255     O      0.406230000000     0.558720000000     0.599120000000    -0.250927   
O256     O      0.482720000000     0.599200000000     0.632700000000    -0.244841   
O257     O      0.893700000000     0.076800000000     0.217190000000    -0.245698   
O258     O      0.858570000000     0.066320000000     0.118080000000    -0.242856   
O259     O      0.933340000000     0.103020000000     0.155570000000    -0.249248   
O260     O      0.880060000000     0.112030000000     0.200670000000    -0.248421   
O261     O      0.867090000000     0.109590000000     0.148430000000    -0.246588   
O262     O      0.924680000000     0.129160000000     0.140830000000    -0.252713   
O263     O      0.873690000000     0.050370000000     0.178770000000    -0.252074   
O264     O      0.893920000000     0.077400000000     0.100070000000    -0.250091   
O265     O      0.737550000000     0.224260000000     0.264010000000    -0.250673   
O266     O      0.813490000000     0.263730000000     0.300180000000    -0.244581   
O267     O      0.792350000000     0.276650000000     0.241620000000    -0.250972   
O268     O      0.791400000000     0.215820000000     0.221210000000    -0.246458   
O269     O      0.804630000000     0.218890000000     0.273430000000    -0.246526   
O270     O      0.780410000000     0.249970000000     0.202130000000    -0.245135   
O271     O      0.746630000000     0.198880000000     0.281230000000    -0.252757   
O272     O      0.778500000000     0.250140000000     0.321720000000    -0.250351   
O273     O      0.827740000000     0.940730000000     0.412130000000    -0.25083    
O274     O      0.789780000000     0.927610000000     0.467860000000    -0.245276   
O275     O      0.829040000000     0.890690000000     0.438280000000    -0.250953   
O276     O      0.766050000000     0.877210000000     0.391840000000    -0.244986   
O277     O      0.754930000000     0.883400000000     0.441550000000    -0.246414   
O278     O      0.793680000000     0.863820000000     0.452130000000    -0.25261    
O279     O      0.809810000000     0.914650000000     0.372440000000    -0.246253   
O280     O      0.810150000000     0.914580000000     0.493320000000    -0.25038    
O281     O      0.522180000000     0.743980000000     0.376650000000    -0.245331   
O282     O      0.582690000000     0.773480000000     0.311030000000    -0.245455   
O283     O      0.512660000000     0.773590000000     0.317210000000    -0.248756   
O284     O      0.520960000000     0.742730000000     0.261290000000    -0.249933   
O285     O      0.547000000000     0.733690000000     0.276790000000    -0.242141   
O286     O      0.547060000000     0.795350000000     0.294200000000    -0.252956   
O287     O      0.514320000000     0.717300000000     0.338340000000    -0.252402   
O288     O      0.571600000000     0.779590000000     0.360750000000    -0.248948   


