data_structure

_audit_creation_method RASPA-1.0
_audit_creation_date 2023-5-23
_audit_author_name 'Poobodin Mano'

_cell_length_a    46.2576
_cell_length_b    36.4547
_cell_length_c    41.0176
_cell_angle_alpha 90.0016
_cell_angle_beta  89.999
_cell_angle_gamma 89.9998
_cell_volume      69168.3

_symmetry_cell_setting          triclinic
_symmetry_space_group_name_Hall 'P 1'
_symmetry_space_group_name_H-M  'P 1'
_symmetry_Int_Tables_number     1

_symmetry_equiv_pos_as_xyz 'x,y,z'

loop_
_atom_site_label
_atom_site_type_symbol
_atom_site_fract_x
_atom_site_fract_y
_atom_site_fract_z
_atom_site_charge
C1       C      0.479590000000     0.103730000000     0.246780000000     0.342897   
C2       C      0.396270000000     0.172100000000     0.208850000000     0.345823   
C3       C      0.435130000000     0.073990000000     0.149360000000     0.344215   
C4       C      0.387400000000     0.053720000000     0.250530000000     0.342089   
C5       C      0.145130000000     0.899590000000     0.408210000000     0.345294   
C6       C      0.228630000000     0.971480000000     0.371980000000     0.343309   
C7       C      0.136680000000     0.018830000000     0.368790000000     0.340957   
C8       C      0.185580000000     0.994520000000     0.470170000000     0.343306   
C9       C      0.213470000000     0.120180000000     0.780210000000     0.260103   
C10      C      0.304360000000     0.162460000000     0.736170000000     0.34345    
C11      C      0.293260000000     0.044160000000     0.778150000000     0.255291   
C12      C      0.247530000000     0.077240000000     0.678680000000     0.340915   
C13      C      0.043720000000     0.891500000000     0.877130000000     0.341671   
C14      C      0.981900000000     0.971950000000     0.830830000000     0.25373    
C15      C      0.997110000000     0.989560000000     0.942130000000     0.341111   
C16      C      0.075710000000     0.011710000000     0.882060000000     0.251269   
C17      C      0.434340000000     0.363730000000     0.722990000000     0.339959   
C18      C      0.526340000000     0.402100000000     0.752510000000     0.262685   
C19      C      0.479910000000     0.459730000000     0.664000000000     0.346182   
C20      C      0.446160000000     0.479590000000     0.771940000000     0.251622   
C21      C      0.197550000000     0.575550000000     0.823390000000     0.25948    
C22      C      0.123300000000     0.651060000000     0.870210000000     0.343589   
C23      C      0.102960000000     0.531470000000     0.857250000000     0.255304   
C24      C      0.181020000000     0.562040000000     0.929590000000     0.343108   
C25      C      0.049130000000     0.669120000000     0.400180000000     0.345692   
C26      C      0.966190000000     0.603530000000     0.359180000000     0.342819   
C27      C      0.058110000000     0.551960000000     0.355690000000     0.342094   
C28      C      0.010080000000     0.566670000000     0.455820000000     0.344828   
C29      C      0.300550000000     0.402800000000     0.199290000000     0.345361   
C30      C      0.216810000000     0.472090000000     0.233250000000     0.343464   
C31      C      0.308510000000     0.523420000000     0.235550000000     0.342371   
C32      C      0.260120000000     0.496000000000     0.134750000000     0.344266   
C33      C      0.100340000000     0.509740000000     0.351530000000    -0.0278197  
C34      C      0.164520000000     0.487970000000     0.234590000000    -0.0280039  
C35      C      0.187520000000     0.465140000000     0.283830000000    -0.0278747  
C36      C      0.157890000000     0.478500000000     0.291010000000     0.0185074  
C37      C      0.144740000000     0.491340000000     0.262860000000     0.0189101  
C38      C      0.117630000000     0.508420000000     0.263690000000    -0.0653978  
C39      C      0.077160000000     0.531520000000     0.302020000000    -0.0280265  
C40      C      0.144710000000     0.482330000000     0.321610000000    -0.0649965  
C41      C      0.104250000000     0.511690000000     0.294190000000     0.0188759  
C42      C      0.117460000000     0.499130000000     0.322410000000     0.0185014  
C43      C      0.351600000000     0.564370000000     0.238560000000    -0.0279753  
C44      C      0.412970000000     0.592140000000     0.356430000000    -0.0281284  
C45      C      0.438320000000     0.609160000000     0.306820000000    -0.0279438  
C46      C      0.408360000000     0.597360000000     0.299310000000     0.0185094  
C47      C      0.393850000000     0.587830000000     0.327650000000     0.0188527  
C48      C      0.366110000000     0.572460000000     0.326770000000    -0.065293   
C49      C      0.326020000000     0.548490000000     0.288330000000    -0.0281404  
C50      C      0.395990000000     0.591710000000     0.268500000000    -0.065005   
C51      C      0.353540000000     0.567430000000     0.296010000000     0.018797   
C52      C      0.368110000000     0.576650000000     0.267630000000     0.0185567  
C53      C      0.246130000000     0.544220000000     0.094650000000    -0.0276654  
C54      C      0.204740000000     0.516280000000     0.965900000000    -0.0280543  
C55      C      0.201400000000     0.579780000000     0.983610000000    -0.0278121  
C56      C      0.215230000000     0.556890000000     0.009140000000     0.0188303  
C57      C      0.217130000000     0.520680000000     0.999020000000     0.0193191  
C58      C      0.228480000000     0.493350000000     0.019350000000    -0.0653359  
C59      C      0.249450000000     0.480770000000     0.076820000000    -0.0279641  
C60      C      0.224560000000     0.567780000000     0.040180000000    -0.0649915  
C61      C      0.237970000000     0.504280000000     0.050310000000     0.0191425  
C62      C      0.236070000000     0.540470000000     0.060460000000     0.0186851  
C63      C      0.483460000000     0.454440000000     0.603570000000    -0.0276487  
C64      C      0.005390000000     0.571950000000     0.516160000000    -0.0271197  
C65      C      0.999330000000     0.512280000000     0.490570000000    -0.0281878  
C66      C      0.496340000000     0.509970000000     0.526090000000     0.018988   
C67      C      0.499650000000     0.544080000000     0.540550000000     0.0189442  
C68      C      0.497650000000     0.548620000000     0.574410000000    -0.0651957  
C69      C      0.489170000000     0.514300000000     0.628920000000    -0.0274743  
C70      C      0.490880000000     0.478470000000     0.544680000000    -0.0652913  
C71      C      0.492170000000     0.517120000000     0.593000000000     0.0187082  
C72      C      0.488890000000     0.483000000000     0.578540000000     0.0189762  
C73      C      0.444510000000     0.323150000000     0.833800000000    -0.0437513  
C74      C      0.329190000000     0.338030000000     0.786250000000    -0.0455589  
C75      C      0.340730000000     0.278700000000     0.808730000000    -0.0456138  
C76      C      0.366380000000     0.303050000000     0.810020000000     0.0203235  
C77      C      0.359680000000     0.337240000000     0.797430000000     0.0220259  
C78      C      0.379980000000     0.365790000000     0.796990000000    -0.0695889  
C79      C      0.432520000000     0.383120000000     0.813030000000    -0.0464957  
C80      C      0.393890000000     0.295220000000     0.822510000000    -0.0683578  
C81      C      0.407430000000     0.358060000000     0.809720000000     0.0280159  
C82      C      0.414230000000     0.323730000000     0.821970000000     0.0171557  
C83      C      0.523470000000     0.489460000000     0.834640000000    -0.0429921  
C84      C      0.061680000000     0.633170000000     0.805810000000    -0.0478843  
C85      C      0.038710000000     0.626060000000     0.858200000000    -0.0458257  
C86      C      0.038880000000     0.590640000000     0.840460000000     0.0236502  
C87      C      0.052080000000     0.594710000000     0.810380000000     0.0292425  
C88      C      0.055480000000     0.564990000000     0.789040000000    -0.0638642  
C89      C      0.046340000000     0.495150000000     0.782530000000    -0.0478991  
C90      C      0.028290000000     0.556620000000     0.850980000000    -0.0663574  
C91      C      0.044860000000     0.530970000000     0.799540000000     0.0294842  
C92      C      0.031650000000     0.526900000000     0.829630000000     0.021617   
C93      C      0.093520000000     0.698920000000     0.897670000000    -0.0261314  
C94      C      0.069290000000     0.841610000000     0.847150000000    -0.0276069  
C95      C      0.049570000000     0.829100000000     0.900950000000    -0.0280725  
C96      C      0.064960000000     0.796470000000     0.888120000000     0.0192394  
C97      C      0.076190000000     0.803570000000     0.857420000000     0.0187031  
C98      C      0.092310000000     0.777180000000     0.840460000000    -0.065032   
C99      C      0.113080000000     0.711220000000     0.843760000000    -0.0265044  
C100     C      0.069270000000     0.762640000000     0.903600000000    -0.0651369  
C101     C      0.096520000000     0.743280000000     0.855900000000     0.0195965  
C102     C      0.085340000000     0.736240000000     0.886620000000     0.0192896  
C103     C      0.353670000000     0.188930000000     0.742540000000    -0.0270601  
C104     C      0.386550000000     0.335480000000     0.710670000000    -0.0273597  
C105     C      0.424890000000     0.297450000000     0.733050000000    -0.0272544  
C106     C      0.397720000000     0.276150000000     0.729950000000     0.0172144  
C107     C      0.375880000000     0.297810000000     0.717090000000     0.0181394  
C108     C      0.347890000000     0.284100000000     0.712430000000    -0.0655026  
C109     C      0.315420000000     0.226790000000     0.719770000000    -0.0291907  
C110     C      0.392780000000     0.239610000000     0.738940000000    -0.0659461  
C111     C      0.343000000000     0.247470000000     0.721170000000     0.0205905  
C112     C      0.364850000000     0.225820000000     0.734030000000     0.0137845  
C113     C      0.496020000000     0.070560000000     0.783990000000    -0.0462814  
C114     C      0.373380000000     0.082850000000     0.773760000000    -0.0451324  
C115     C      0.396120000000     0.128200000000     0.808040000000    -0.0456592  
C116     C      0.418160000000     0.103160000000     0.794130000000     0.0197992  
C117     C      0.405110000000     0.077120000000     0.774450000000     0.0217885  
C118     C      0.421270000000     0.049960000000     0.758530000000    -0.0681539  
C119     C      0.473290000000     0.025210000000     0.749700000000    -0.0450912  
C120     C      0.448150000000     0.103580000000     0.799060000000    -0.0682179  
C121     C      0.451260000000     0.050390000000     0.763440000000     0.0205402  
C122     C      0.464310000000     0.076430000000     0.783130000000     0.0226774  
C123     C      0.187710000000     0.007730000000     0.746380000000    -0.0449743  
C124     C      0.077170000000     0.076980000000     0.751180000000    -0.0460456  
C125     C      0.090050000000     0.042530000000     0.799220000000    -0.0456091  
C126     C      0.113580000000     0.040530000000     0.774760000000     0.0241043  
C127     C      0.106190000000     0.060290000000     0.747160000000     0.022119   
C128     C      0.124880000000     0.062760000000     0.720340000000    -0.067374   
C129     C      0.174900000000     0.042210000000     0.698310000000    -0.0444522  
C130     C      0.140060000000     0.022070000000     0.777190000000    -0.0681749  
C131     C      0.151370000000     0.044280000000     0.722760000000     0.0251765  
C132     C      0.158740000000     0.024510000000     0.750380000000     0.0273813  
C133     C      0.094240000000     0.706230000000     0.402270000000    -0.0276712  
C134     C      0.100180000000     0.862220000000     0.412080000000    -0.0275168  
C135     C      0.146500000000     0.831280000000     0.406650000000    -0.0278048  
C136     C      0.122520000000     0.804280000000     0.407320000000     0.0188895  
C137     C      0.096100000000     0.821920000000     0.410320000000     0.0184414  
C138     C      0.070030000000     0.802310000000     0.410660000000    -0.0651478  
C139     C      0.047840000000     0.737090000000     0.407060000000    -0.0275061  
C140     C      0.124370000000     0.766030000000     0.404680000000    -0.0654016  
C141     C      0.071880000000     0.764040000000     0.408020000000     0.018542   
C142     C      0.098320000000     0.746420000000     0.405200000000     0.0188181  
C143     C      0.238760000000     0.026960000000     0.638720000000    -0.0292278  
C144     C      0.192010000000     0.044660000000     0.510860000000    -0.0274914  
C145     C      0.202110000000     0.981720000000     0.526800000000    -0.0280212  
C146     C      0.209210000000     0.007360000000     0.553700000000     0.0187036  
C147     C      0.203340000000     0.043240000000     0.544680000000     0.0177447  
C148     C      0.208660000000     0.072660000000     0.565860000000    -0.0655047  
C149     C      0.227870000000     0.089830000000     0.623240000000    -0.0280313  
C150     C      0.220940000000     0.998890000000     0.584290000000    -0.066525   
C151     C      0.220240000000     0.064170000000     0.596520000000     0.0167297  
C152     C      0.226330000000     0.028310000000     0.605420000000     0.0180283  
C153     C      0.345660000000     0.365520000000     0.198570000000    -0.0275566  
C154     C      0.351240000000     0.209330000000     0.205940000000    -0.0276943  
C155     C      0.397770000000     0.240320000000     0.204680000000    -0.0274808  
C156     C      0.373790000000     0.267290000000     0.202960000000     0.0186398  
C157     C      0.347270000000     0.249600000000     0.203770000000     0.0188051  
C158     C      0.321220000000     0.269200000000     0.202940000000    -0.0652947  
C159     C      0.299170000000     0.334480000000     0.200430000000    -0.0276367  
C160     C      0.375740000000     0.305600000000     0.201110000000    -0.0652205  
C161     C      0.323160000000     0.307500000000     0.201110000000     0.0188374  
C162     C      0.349680000000     0.325200000000     0.200140000000     0.0185934  
C163     C      0.447510000000     0.022710000000     0.111660000000    -0.0277407  
C164     C      0.975820000000     0.038420000000     0.977150000000    -0.0276846  
C165     C      0.980770000000     0.976680000000     0.998860000000    -0.0286485  
C166     C      0.969480000000     0.001970000000     0.024180000000     0.0196413  
C167     C      0.966660000000     0.037170000000     0.011790000000     0.0185296  
C168     C      0.957450000000     0.066400000000     0.031390000000    -0.0648988  
C169     C      0.442530000000     0.084450000000     0.089960000000    -0.0277356  
C170     C      0.464330000000     0.994360000000     0.056890000000    -0.065498   
C171     C      0.451790000000     0.058650000000     0.064030000000     0.0188306  
C172     C      0.454650000000     0.023440000000     0.076400000000     0.0191925  
C173     C      0.258130000000     0.965490000000     0.321430000000    -0.027808   
C174     C      0.368170000000     0.033000000000     0.304000000000    -0.0280294  
C175     C      0.345490000000     0.010870000000     0.254320000000    -0.0278914  
C176     C      0.328210000000     0.000180000000     0.283310000000     0.0186843  
C177     C      0.341140000000     0.012970000000     0.311620000000     0.0187515  
C178     C      0.327540000000     0.009780000000     0.341980000000    -0.0652567  
C179     C      0.280590000000     0.988980000000     0.370750000000    -0.0280085  
C180     C      0.301050000000     0.983130000000     0.283920000000    -0.0651139  
C181     C      0.300500000000     0.992510000000     0.342620000000     0.0186505  
C182     C      0.287660000000     0.979340000000     0.314410000000     0.0185505  
C183     C      0.032110000000     0.088710000000     0.248160000000    -0.0281593  
C184     C      0.094490000000     0.061240000000     0.365420000000    -0.0279158  
C185     C      0.118450000000     0.041870000000     0.315580000000    -0.0281912  
C186     C      0.091510000000     0.062150000000     0.307970000000     0.0189031  
C187     C      0.077870000000     0.073350000000     0.336380000000     0.0183971  
C188     C      0.050630000000     0.090200000000     0.335680000000    -0.0649645  
C189     C      0.008410000000     0.109200000000     0.297770000000    -0.0275792  
C190     C      0.078590000000     0.066880000000     0.277370000000    -0.0653539  
C191     C      0.037930000000     0.095510000000     0.305010000000     0.018358   
C192     C      0.051490000000     0.084010000000     0.276650000000     0.0189648  
C193     C      0.979640000000     0.103700000000     0.246710000000     0.342769   
C194     C      0.896330000000     0.172260000000     0.208880000000     0.34583    
C195     C      0.934890000000     0.074000000000     0.149440000000     0.344358   
C196     C      0.887350000000     0.054020000000     0.250790000000     0.342287   
C197     C      0.644950000000     0.899750000000     0.407920000000     0.345334   
C198     C      0.728550000000     0.971740000000     0.372230000000     0.343231   
C199     C      0.636600000000     0.019150000000     0.368980000000     0.341047   
C200     C      0.685300000000     0.994160000000     0.470440000000     0.343385   
C201     C      0.713940000000     0.117130000000     0.781030000000     0.259808   
C202     C      0.804680000000     0.160220000000     0.736250000000     0.343786   
C203     C      0.794250000000     0.042260000000     0.778800000000     0.255203   
C204     C      0.747530000000     0.075220000000     0.679340000000     0.340924   
C205     C      0.546180000000     0.892660000000     0.877700000000     0.341764   
C206     C      0.486220000000     0.974520000000     0.830670000000     0.25447    
C207     C      0.499430000000     0.990500000000     0.942620000000     0.341559   
C208     C      0.579370000000     0.012300000000     0.884470000000     0.251661   
C209     C      0.933870000000     0.362270000000     0.722890000000     0.339888   
C210     C      0.025740000000     0.400760000000     0.752760000000     0.262676   
C211     C      0.979380000000     0.458600000000     0.664170000000     0.346201   
C212     C      0.945620000000     0.477980000000     0.772220000000     0.251318   
C213     C      0.697530000000     0.574950000000     0.823270000000     0.259575   
C214     C      0.623980000000     0.651320000000     0.870410000000     0.343647   
C215     C      0.602970000000     0.531780000000     0.857880000000     0.255287   
C216     C      0.681470000000     0.562170000000     0.929730000000     0.343323   
C217     C      0.548970000000     0.669280000000     0.399400000000     0.345891   
C218     C      0.466010000000     0.603470000000     0.358590000000     0.342744   
C219     C      0.558000000000     0.552060000000     0.355130000000     0.342166   
C220     C      0.510040000000     0.567030000000     0.455290000000     0.344466   
C221     C      0.800870000000     0.403140000000     0.199490000000     0.345381   
C222     C      0.717100000000     0.472460000000     0.233220000000     0.343345   
C223     C      0.808830000000     0.523760000000     0.235820000000     0.342256   
C224     C      0.760640000000     0.496370000000     0.134880000000     0.344242   
C225     C      0.600230000000     0.509810000000     0.351090000000    -0.0278807  
C226     C      0.664800000000     0.488320000000     0.234380000000    -0.0281151  
C227     C      0.687660000000     0.465430000000     0.283690000000    -0.0278709  
C228     C      0.657990000000     0.478740000000     0.290760000000     0.0185072  
C229     C      0.644930000000     0.491620000000     0.262580000000     0.0189282  
C230     C      0.617800000000     0.508660000000     0.263320000000    -0.065389   
C231     C      0.577200000000     0.531660000000     0.301510000000    -0.0280403  
C232     C      0.644710000000     0.482500000000     0.321310000000    -0.0650248  
C233     C      0.604320000000     0.511860000000     0.293760000000     0.0188691  
C234     C      0.617440000000     0.499260000000     0.322020000000     0.0185199  
C235     C      0.851910000000     0.564710000000     0.238940000000    -0.0279598  
C236     C      0.913140000000     0.592300000000     0.356940000000    -0.0280949  
C237     C      0.938550000000     0.609370000000     0.307380000000    -0.0279048  
C238     C      0.908590000000     0.597620000000     0.299810000000     0.0184955  
C239     C      0.894050000000     0.588060000000     0.328120000000     0.0188233  
C240     C      0.866300000000     0.572710000000     0.327180000000    -0.0652624  
C241     C      0.826260000000     0.548780000000     0.288650000000    -0.0281158  
C242     C      0.896260000000     0.592010000000     0.268980000000    -0.065008   
C243     C      0.853770000000     0.567720000000     0.296390000000     0.0187692  
C244     C      0.868380000000     0.576960000000     0.268050000000     0.0185585  
C245     C      0.746670000000     0.544560000000     0.094750000000    -0.0276435  
C246     C      0.705330000000     0.516500000000     0.966000000000    -0.0279987  
C247     C      0.701890000000     0.580000000000     0.983700000000    -0.02782    
C248     C      0.715780000000     0.557150000000     0.009220000000     0.0188122  
C249     C      0.717740000000     0.520940000000     0.999110000000     0.0193211  
C250     C      0.729130000000     0.493650000000     0.019440000000    -0.0653134  
C251     C      0.750090000000     0.481120000000     0.076930000000    -0.0279645  
C252     C      0.725090000000     0.568060000000     0.040270000000    -0.0649523  
C253     C      0.738600000000     0.504600000000     0.050400000000     0.0191296  
C254     C      0.736640000000     0.540790000000     0.060550000000     0.0186832  
C255     C      0.982890000000     0.453580000000     0.603720000000    -0.0275878  
C256     C      0.505400000000     0.572610000000     0.515590000000    -0.0283321  
C257     C      0.499550000000     0.512700000000     0.490190000000    -0.0282638  
C258     C      0.996040000000     0.509370000000     0.526450000000     0.0189951  
C259     C      0.999480000000     0.543400000000     0.541040000000     0.0185235  
C260     C      0.997480000000     0.547790000000     0.574910000000    -0.0654003  
C261     C      0.988830000000     0.513270000000     0.629290000000    -0.027778   
C262     C      0.990440000000     0.477810000000     0.544930000000    -0.0653148  
C263     C      0.991850000000     0.516250000000     0.593380000000     0.0188012  
C264     C      0.988440000000     0.482210000000     0.578800000000     0.0189364  
C265     C      0.947330000000     0.320880000000     0.831550000000    -0.0438618  
C266     C      0.830250000000     0.333640000000     0.789290000000    -0.045588   
C267     C      0.843580000000     0.274070000000     0.809940000000    -0.0455083  
C268     C      0.868820000000     0.299130000000     0.810700000000     0.0202384  
C269     C      0.861090000000     0.333460000000     0.799170000000     0.021978   
C270     C      0.880850000000     0.362610000000     0.798510000000    -0.0696106  
C271     C      0.933580000000     0.381040000000     0.812660000000    -0.0461053  
C272     C      0.896870000000     0.291790000000     0.821830000000    -0.0683795  
C273     C      0.908850000000     0.355340000000     0.809880000000     0.0278233  
C274     C      0.916660000000     0.320900000000     0.821050000000     0.0174186  
C275     C      0.023280000000     0.488090000000     0.834950000000    -0.0435742  
C276     C      0.562480000000     0.634300000000     0.805740000000    -0.0479597  
C277     C      0.539120000000     0.627370000000     0.857940000000    -0.0457945  
C278     C      0.539250000000     0.591950000000     0.840200000000     0.0236288  
C279     C      0.552680000000     0.595910000000     0.810240000000     0.0293947  
C280     C      0.556150000000     0.566140000000     0.788960000000    -0.0637854  
C281     C      0.546940000000     0.496300000000     0.782490000000    -0.047873   
C282     C      0.528480000000     0.558000000000     0.850670000000    -0.0662434  
C283     C      0.545320000000     0.532190000000     0.799400000000     0.0298148  
C284     C      0.531860000000     0.528250000000     0.829350000000     0.0213876  
C285     C      0.594340000000     0.699370000000     0.897800000000    -0.0261046  
C286     C      0.571450000000     0.842570000000     0.847650000000    -0.0275964  
C287     C      0.551290000000     0.830020000000     0.901240000000    -0.0281249  
C288     C      0.566510000000     0.797260000000     0.888380000000     0.0192767  
C289     C      0.577970000000     0.804380000000     0.857810000000     0.0186819  
C290     C      0.594000000000     0.777890000000     0.840860000000    -0.065067   
C291     C      0.614280000000     0.711690000000     0.844070000000    -0.0264876  
C292     C      0.570480000000     0.763320000000     0.903780000000    -0.0652285  
C293     C      0.597870000000     0.743880000000     0.856200000000     0.0196098  
C294     C      0.586470000000     0.736810000000     0.886820000000     0.0192963  
C295     C      0.854220000000     0.186490000000     0.740920000000    -0.0269778  
C296     C      0.885820000000     0.334170000000     0.711610000000    -0.0274139  
C297     C      0.924880000000     0.295630000000     0.731580000000    -0.0272299  
C298     C      0.897700000000     0.274290000000     0.728890000000     0.0171666  
C299     C      0.875440000000     0.296250000000     0.717460000000     0.0181879  
C300     C      0.847340000000     0.282590000000     0.713560000000    -0.0655308  
C301     C      0.815190000000     0.224990000000     0.720830000000    -0.0292437  
C302     C      0.893120000000     0.237430000000     0.737090000000    -0.0660471  
C303     C      0.842790000000     0.245670000000     0.721540000000     0.0206892  
C304     C      0.865070000000     0.223680000000     0.732910000000     0.0138063  
C305     C      0.996340000000     0.070400000000     0.787080000000    -0.0472397  
C306     C      0.873870000000     0.081320000000     0.773530000000    -0.0450399  
C307     C      0.895330000000     0.125400000000     0.810090000000    -0.045757   
C308     C      0.917940000000     0.101330000000     0.796010000000     0.0199276  
C309     C      0.905630000000     0.076020000000     0.775010000000     0.0215523  
C310     C      0.922430000000     0.049860000000     0.758630000000    -0.0681863  
C311     C      0.974900000000     0.026340000000     0.750490000000    -0.044985   
C312     C      0.947800000000     0.101960000000     0.801870000000    -0.0685382  
C313     C      0.952290000000     0.050510000000     0.764470000000     0.0203558  
C314     C      0.964600000000     0.075810000000     0.785480000000     0.0233419  
C315     C      0.687130000000     0.005330000000     0.747280000000    -0.0448226  
C316     C      0.576810000000     0.075260000000     0.750840000000    -0.0462159  
C317     C      0.589300000000     0.041130000000     0.799190000000    -0.0459459  
C318     C      0.612930000000     0.038740000000     0.774900000000     0.0243715  
C319     C      0.605790000000     0.058360000000     0.747130000000     0.0221086  
C320     C      0.624660000000     0.060570000000     0.720460000000    -0.0674435  
C321     C      0.674770000000     0.039650000000     0.698960000000    -0.0444952  
C322     C      0.639330000000     0.020130000000     0.777630000000    -0.0683181  
C323     C      0.651060000000     0.041950000000     0.723190000000     0.0250262  
C324     C      0.658180000000     0.022300000000     0.750960000000     0.0272857  
C325     C      0.594070000000     0.706400000000     0.401530000000    -0.0277138  
C326     C      0.599980000000     0.862380000000     0.411460000000    -0.0276328  
C327     C      0.646320000000     0.831450000000     0.406190000000    -0.0277396  
C328     C      0.622330000000     0.804440000000     0.406710000000     0.0188487  
C329     C      0.595900000000     0.822080000000     0.409630000000     0.0184958  
C330     C      0.569830000000     0.802480000000     0.409860000000    -0.0652367  
C331     C      0.547650000000     0.737270000000     0.406180000000    -0.0276405  
C332     C      0.624190000000     0.766210000000     0.404050000000    -0.065385   
C333     C      0.571690000000     0.764210000000     0.407200000000     0.0186062  
C334     C      0.598140000000     0.746590000000     0.404460000000     0.0187901  
C335     C      0.738260000000     0.025170000000     0.639280000000    -0.029221   
C336     C      0.691880000000     0.044000000000     0.511380000000    -0.0275193  
C337     C      0.701520000000     0.980880000000     0.527100000000    -0.0280049  
C338     C      0.708710000000     0.006300000000     0.554140000000     0.0186663  
C339     C      0.703110000000     0.042290000000     0.545230000000     0.0177676  
C340     C      0.708610000000     0.071550000000     0.566530000000    -0.0655335  
C341     C      0.727890000000     0.088240000000     0.623990000000    -0.0280569  
C342     C      0.720320000000     0.997560000000     0.584720000000    -0.0664614  
C343     C      0.720070000000     0.062780000000     0.597190000000     0.0167529  
C344     C      0.725870000000     0.026810000000     0.605980000000     0.0179728  
C345     C      0.845950000000     0.365780000000     0.198770000000    -0.0276208  
C346     C      0.851360000000     0.209570000000     0.205960000000    -0.0276163  
C347     C      0.897920000000     0.240480000000     0.204710000000    -0.0275318  
C348     C      0.873970000000     0.267500000000     0.203030000000     0.0186446  
C349     C      0.847430000000     0.249850000000     0.203820000000     0.0187708  
C350     C      0.821400000000     0.269500000000     0.203030000000    -0.0652837  
C351     C      0.799420000000     0.334810000000     0.200600000000    -0.0277295  
C352     C      0.875960000000     0.305810000000     0.201220000000    -0.0652249  
C353     C      0.823390000000     0.307790000000     0.201240000000     0.0188668  
C354     C      0.849920000000     0.325450000000     0.200290000000     0.0186042  
C355     C      0.946970000000     0.022610000000     0.111750000000    -0.0277206  
C356     C      0.477460000000     0.039060000000     0.977430000000    -0.0277135  
C357     C      0.482480000000     0.977300000000     0.999070000000    -0.0283397  
C358     C      0.470830000000     0.002430000000     0.024290000000     0.0195414  
C359     C      0.467960000000     0.037640000000     0.011940000000     0.0186441  
C360     C      0.458450000000     0.066760000000     0.031500000000    -0.0649819  
C361     C      0.942070000000     0.084330000000     0.089990000000    -0.0275956  
C362     C      0.963240000000     0.994020000000     0.056860000000    -0.06559    
C363     C      0.951060000000     0.058420000000     0.064030000000     0.0187012  
C364     C      0.953860000000     0.023220000000     0.076420000000     0.0192165  
C365     C      0.758180000000     0.965610000000     0.321790000000    -0.0278063  
C366     C      0.868030000000     0.033620000000     0.304320000000    -0.0280487  
C367     C      0.845540000000     0.011030000000     0.254690000000    -0.0278151  
C368     C      0.828230000000     0.000450000000     0.283690000000     0.0186393  
C369     C      0.841040000000     0.013500000000     0.311960000000     0.0187551  
C370     C      0.827380000000     0.010440000000     0.342310000000    -0.0653036  
C371     C      0.780450000000     0.989550000000     0.371050000000    -0.0280494  
C372     C      0.801120000000     0.983240000000     0.284310000000    -0.0651191  
C373     C      0.800410000000     0.993020000000     0.342960000000     0.0186926  
C374     C      0.787670000000     0.979590000000     0.314780000000     0.0185477  
C375     C      0.532110000000     0.089030000000     0.248320000000    -0.0281209  
C376     C      0.594350000000     0.061470000000     0.365640000000    -0.027796   
C377     C      0.618470000000     0.042430000000     0.315810000000    -0.0281736  
C378     C      0.591500000000     0.062620000000     0.308190000000     0.0189216  
C379     C      0.577760000000     0.073630000000     0.336600000000     0.0183471  
C380     C      0.550460000000     0.090320000000     0.335890000000    -0.0649645  
C381     C      0.508230000000     0.109200000000     0.297930000000    -0.0278945  
C382     C      0.578620000000     0.067390000000     0.277570000000    -0.0654317  
C383     C      0.537800000000     0.095680000000     0.305190000000     0.0183721  
C384     C      0.551460000000     0.084370000000     0.276840000000     0.0189519  
Cd1      Cd     0.424530000000     0.101820000000     0.213800000000     0.507026   
Cd2      Cd     0.173620000000     0.969950000000     0.404960000000     0.506576   
Cd3      Cd     0.264450000000     0.101920000000     0.742770000000     0.503944   
Cd4      Cd     0.024370000000     0.966410000000     0.882430000000     0.504308   
Cd5      Cd     0.471500000000     0.426990000000     0.727340000000     0.500231   
Cd6      Cd     0.150960000000     0.580140000000     0.870160000000     0.505495   
Cd7      Cd     0.020720000000     0.599090000000     0.393060000000     0.507      
Cd8      Cd     0.271910000000     0.473040000000     0.200500000000     0.507056   
Cd9      Cd     0.924510000000     0.101930000000     0.213890000000     0.507047   
Cd10     Cd     0.673470000000     0.970100000000     0.405050000000     0.50662    
Cd11     Cd     0.764940000000     0.099580000000     0.743360000000     0.504089   
Cd12     Cd     0.527580000000     0.967820000000     0.883290000000     0.504113   
Cd13     Cd     0.970950000000     0.425600000000     0.727420000000     0.49991    
Cd14     Cd     0.651250000000     0.580160000000     0.870370000000     0.505465   
Cd15     Cd     0.520580000000     0.599220000000     0.392410000000     0.506868   
Cd16     Cd     0.772280000000     0.473410000000     0.200660000000     0.507048   
H1       H      0.189260000000     0.435180000000     0.288400000000     0.0518215  
H2       H      0.155620000000     0.468710000000     0.216140000000     0.0513039  
H3       H      0.107880000000     0.519680000000     0.241890000000     0.0504403  
H4       H      0.155520000000     0.473780000000     0.343750000000     0.0504229  
H5       H      0.092100000000     0.485090000000     0.364470000000     0.0513991  
H6       H      0.077530000000     0.560010000000     0.292330000000     0.0543462  
H7       H      0.203960000000     0.479590000000     0.298860000000     0.0544416  
H8       H      0.168340000000     0.515000000000     0.222790000000     0.0540783  
H9       H      0.058110000000     0.516990000000     0.291770000000     0.0513438  
H10      H      0.113410000000     0.526360000000     0.368830000000     0.0543316  
H11      H      0.441500000000     0.638530000000     0.300510000000     0.0516758  
H12      H      0.404500000000     0.613560000000     0.373160000000     0.0513088  
H13      H      0.355270000000     0.563650000000     0.348810000000     0.0504191  
H14      H      0.407840000000     0.597520000000     0.246340000000     0.0504411  
H15      H      0.344620000000     0.588220000000     0.223650000000     0.051441   
H16      H      0.324940000000     0.521060000000     0.300130000000     0.054371   
H17      H      0.954720000000     0.592680000000     0.293860000000     0.0546001  
H18      H      0.415140000000     0.565970000000     0.370140000000     0.054165   
H19      H      0.307210000000     0.565060000000     0.296500000000     0.0511879  
H20      H      0.364650000000     0.545650000000     0.223030000000     0.0545713  
H21      H      0.216340000000     0.601530000000     0.974870000000     0.053111   
H22      H      0.221340000000     0.506470000000     0.948360000000     0.0530991  
H23      H      0.229500000000     0.464980000000     0.011650000000     0.0510988  
H24      H      0.222600000000     0.595920000000     0.048310000000     0.0507379  
H25      H      0.265450000000     0.562250000000     0.096160000000     0.0522353  
H26      H      0.233980000000     0.458590000000     0.083250000000     0.0543006  
H27      H      0.181320000000     0.592950000000     0.992800000000     0.0537115  
H28      H      0.186390000000     0.496600000000     0.965950000000     0.0547252  
H29      H      0.270380000000     0.468130000000     0.069700000000     0.0518997  
H30      H      0.228890000000     0.555690000000     0.110550000000     0.0541069  
H31      H      0.479380000000     0.504290000000     0.477500000000     0.053226   
H32      H      0.488120000000     0.593800000000     0.515440000000     0.0533362  
H33      H      0.500270000000     0.575250000000     0.585700000000     0.0503951  
H34      H      0.488360000000     0.451820000000     0.533400000000     0.0506453  
H35      H      0.462180000000     0.440970000000     0.599730000000     0.0526957  
H36      H      0.509220000000     0.523370000000     0.641500000000     0.0520421  
H37      H      0.017560000000     0.495120000000     0.481700000000     0.0534809  
H38      H      0.026710000000     0.585200000000     0.520330000000     0.0526955  
H39      H      0.470770000000     0.531100000000     0.637890000000     0.0522525  
H40      H      0.500620000000     0.433100000000     0.603250000000     0.0535814  
H41      H      0.333840000000     0.270860000000     0.833700000000     0.0514307  
H42      H      0.316590000000     0.358700000000     0.800150000000     0.0514251  
H43      H      0.374660000000     0.392640000000     0.787430000000     0.0579751  
H44      H      0.399130000000     0.268490000000     0.832350000000     0.0470637  
H45      H      0.445340000000     0.316800000000     0.860260000000     0.0494896  
H46      H      0.439640000000     0.393470000000     0.788940000000     0.0707165  
H47      H      0.345170000000     0.253740000000     0.794180000000     0.0507253  
H48      H      0.327900000000     0.343940000000     0.759750000000     0.0475984  
H49      H      0.427180000000     0.406510000000     0.829290000000     0.0545148  
H50      H      0.457540000000     0.302910000000     0.819880000000     0.0511637  
H51      H      0.051270000000     0.623860000000     0.881180000000     0.0558143  
H52      H      0.085530000000     0.634540000000     0.803010000000     0.0615456  
H53      H      0.066080000000     0.568080000000     0.765670000000     0.0570743  
H54      H      0.018240000000     0.553370000000     0.874630000000     0.0520676  
H55      H      0.534320000000     0.478080000000     0.856570000000     0.052995   
H56      H      0.033940000000     0.495970000000     0.759360000000     0.0687832  
H57      H      0.016260000000     0.635030000000     0.863470000000     0.0494023  
H58      H      0.050920000000     0.645760000000     0.784360000000     0.0504008  
H59      H      0.069120000000     0.487260000000     0.777700000000     0.0586936  
H60      H      0.499640000000     0.486860000000     0.837040000000     0.0585371  
H61      H      0.059320000000     0.838750000000     0.924190000000     0.0545408  
H62      H      0.089280000000     0.857730000000     0.842530000000     0.0528036  
H63      H      0.101300000000     0.782820000000     0.816620000000     0.0502329  
H64      H      0.060760000000     0.757240000000     0.927720000000     0.0504038  
H65      H      0.106560000000     0.700010000000     0.920410000000     0.0528815  
H66      H      0.103560000000     0.700280000000     0.820870000000     0.0509363  
H67      H      0.026330000000     0.823040000000     0.905200000000     0.053198   
H68      H      0.055850000000     0.841790000000     0.824700000000     0.0516353  
H69      H      0.136040000000     0.718530000000     0.839110000000     0.0533257  
H70      H      0.074100000000     0.681740000000     0.902160000000     0.0498732  
H71      H      0.442190000000     0.285660000000     0.717450000000     0.0511822  
H72      H      0.385330000000     0.342150000000     0.684270000000     0.0518926  
H73      H      0.330740000000     0.301160000000     0.702830000000     0.0501741  
H74      H      0.409700000000     0.222880000000     0.749490000000     0.0457174  
H75      H      0.365250000000     0.167020000000     0.728960000000     0.05005    
H76      H      0.298470000000     0.240200000000     0.734830000000     0.055922   
H77      H      0.432680000000     0.298070000000     0.758650000000     0.0496863  
H78      H      0.373950000000     0.356290000000     0.724430000000     0.0492977  
H79      H      0.307420000000     0.224400000000     0.694300000000     0.0532993  
H80      H      0.355850000000     0.183680000000     0.769100000000     0.0504149  
H81      H      0.399880000000     0.156820000000     0.799780000000     0.0428275  
H82      H      0.365930000000     0.089170000000     0.748640000000     0.0639419  
H83      H      0.411050000000     0.029580000000     0.743180000000     0.0523579  
H84      H      0.458350000000     0.123910000000     0.814470000000     0.05048    
H85      H      0.007910000000     0.095270000000     0.778480000000     0.053231   
H86      H      0.469310000000     0.996570000000     0.757730000000     0.0518324  
H87      H      0.396170000000     0.126900000000     0.835080000000     0.0506161  
H88      H      0.361830000000     0.058420000000     0.783320000000     0.0591314  
H89      H      0.473510000000     0.026720000000     0.722670000000     0.0490473  
H90      H      0.503430000000     0.064620000000     0.809190000000     0.0670692  
H91      H      0.097840000000     0.055450000000     0.822100000000     0.056028   
H92      H      0.078400000000     0.107350000000     0.749710000000     0.0497349  
H93      H      0.119120000000     0.078210000000     0.698760000000     0.0505427  
H94      H      0.145820000000     0.006610000000     0.798770000000     0.0543489  
H95      H      0.202960000000     0.018180000000     0.765100000000     0.0666155  
H96      H      0.167190000000     0.029220000000     0.675420000000     0.047722   
H97      H      0.081190000000     0.014810000000     0.804300000000     0.0659619  
H98      H      0.061910000000     0.066310000000     0.732550000000     0.0523981  
H99      H      0.183720000000     0.069920000000     0.693100000000     0.0614877  
H100     H      0.186360000000     0.977360000000     0.747700000000     0.0515539  
H101     H      0.158970000000     0.829420000000     0.383550000000     0.0532358  
H102     H      0.088770000000     0.876380000000     0.391810000000     0.0523656  
H103     H      0.049390000000     0.816110000000     0.412650000000     0.0503803  
H104     H      0.144980000000     0.752270000000     0.402120000000     0.0505584  
H105     H      0.103320000000     0.695690000000     0.378990000000     0.0525312  
H106     H      0.035070000000     0.737750000000     0.430000000000     0.0526062  
H107     H      0.161520000000     0.827050000000     0.427450000000     0.0525649  
H108     H      0.092130000000     0.873340000000     0.435620000000     0.0520988  
H109     H      0.033100000000     0.742470000000     0.386200000000     0.0527946  
H110     H      0.104690000000     0.691490000000     0.422860000000     0.0526354  
H111     H      0.184820000000     0.962240000000     0.534160000000     0.0514492  
H112     H      0.169770000000     0.056170000000     0.510260000000     0.0516193  
H113     H      0.204150000000     0.100690000000     0.558790000000     0.0497569  
H114     H      0.225770000000     0.970910000000     0.591220000000     0.0502539  
H115     H      0.225210000000     0.010020000000     0.655230000000     0.0542188  
H116     H      0.244630000000     0.109770000000     0.615320000000     0.0519071  
H117     H      0.221420000000     0.965780000000     0.519090000000     0.0536067  
H118     H      0.206130000000     0.061560000000     0.494880000000     0.0534668  
H119     H      0.208590000000     0.105250000000     0.631830000000     0.0490324  
H120     H      0.261000000000     0.015450000000     0.638410000000     0.0529193  
H121     H      0.411440000000     0.244960000000     0.226580000000     0.0526949  
H122     H      0.341210000000     0.198110000000     0.228460000000     0.0523445  
H123     H      0.300520000000     0.255370000000     0.203800000000     0.0505809  
H124     H      0.396430000000     0.319440000000     0.200580000000     0.0504976  
H125     H      0.355870000000     0.379360000000     0.219800000000     0.0523848  
H126     H      0.285260000000     0.330490000000     0.178620000000     0.0528148  
H127     H      0.411680000000     0.241790000000     0.182620000000     0.0528119  
H128     H      0.341670000000     0.195220000000     0.184490000000     0.0529402  
H129     H      0.285510000000     0.332320000000     0.222640000000     0.0530495  
H130     H      0.355030000000     0.377010000000     0.175810000000     0.0525833  
H131     H      0.466840000000     0.955070000000     0.993380000000     0.0536118  
H132     H      0.459360000000     0.047120000000     0.961130000000     0.0520392  
H133     H      0.955720000000     0.094010000000     0.021860000000     0.0501689  
H134     H      0.467040000000     0.967000000000     0.066680000000     0.0509295  
H135     H      0.428600000000     0.004730000000     0.116510000000     0.0527855  
H136     H      0.958200000000     0.106650000000     0.093220000000     0.0535959  
H137     H      0.001510000000     0.963960000000     0.006570000000     0.054541   
H138     H      0.993970000000     0.057970000000     0.973520000000     0.0526679  
H139     H      0.421170000000     0.096780000000     0.084160000000     0.0522098  
H140     H      0.965650000000     0.012700000000     0.126350000000     0.0536926  
H141     H      0.332460000000     0.027300000000     0.236840000000     0.054488   
H142     H      0.367600000000     0.061490000000     0.313660000000     0.0542722  
H143     H      0.337070000000     0.021220000000     0.363840000000     0.0501675  
H144     H      0.290470000000     0.974320000000     0.261710000000     0.0505624  
H145     H      0.241600000000     0.979660000000     0.306290000000     0.0542172  
H146     H      0.289610000000     0.970090000000     0.389420000000     0.0511915  
H147     H      0.353990000000     0.986270000000     0.241530000000     0.0514462  
H148     H      0.387220000000     0.018620000000     0.314430000000     0.0511823  
H149     H      0.276350000000     0.016040000000     0.382310000000     0.0537372  
H150     H      0.256710000000     0.935510000000     0.316870000000     0.0520773  
H151     H      0.137680000000     0.056830000000     0.306300000000     0.0513844  
H152     H      0.102540000000     0.085190000000     0.379500000000     0.0514821  
H153     H      0.039480000000     0.097660000000     0.357910000000     0.0502742  
H154     H      0.088670000000     0.056640000000     0.255350000000     0.0505439  
H155     H      0.541170000000     0.109360000000     0.230910000000     0.0513119  
H156     H      0.991770000000     0.094140000000     0.312050000000     0.0541928  
H157     H      0.118200000000     0.013880000000     0.304800000000     0.0542575  
H158     H      0.081130000000     0.043790000000     0.381760000000     0.0542166  
H159     H      0.006630000000     0.138940000000     0.303330000000     0.0516522  
H160     H      0.528700000000     0.062620000000     0.235300000000     0.0542342  
H161     H      0.689410000000     0.435470000000     0.288230000000     0.0518316  
H162     H      0.655980000000     0.469100000000     0.215870000000     0.0513448  
H163     H      0.608120000000     0.519960000000     0.241490000000     0.0504135  
H164     H      0.655450000000     0.473920000000     0.343480000000     0.0504312  
H165     H      0.591950000000     0.485130000000     0.363950000000     0.0513843  
H166     H      0.577580000000     0.560160000000     0.291850000000     0.0543378  
H167     H      0.704040000000     0.479890000000     0.298800000000     0.0544362  
H168     H      0.668640000000     0.515380000000     0.222640000000     0.0540872  
H169     H      0.558180000000     0.517120000000     0.291180000000     0.0512946  
H170     H      0.613230000000     0.526400000000     0.368470000000     0.0543664  
H171     H      0.941770000000     0.638750000000     0.301140000000     0.0516248  
H172     H      0.904670000000     0.613730000000     0.373670000000     0.051274   
H173     H      0.855430000000     0.563860000000     0.349190000000     0.0504066  
H174     H      0.908150000000     0.597840000000     0.246850000000     0.0504105  
H175     H      0.844940000000     0.588570000000     0.224030000000     0.0514229  
H176     H      0.825160000000     0.521340000000     0.300430000000     0.0543647  
H177     H      0.454480000000     0.592460000000     0.293310000000     0.0546501  
H178     H      0.915250000000     0.566110000000     0.370630000000     0.0541454  
H179     H      0.807440000000     0.565350000000     0.296800000000     0.0511711  
H180     H      0.864980000000     0.546010000000     0.223420000000     0.0545548  
H181     H      0.716800000000     0.601770000000     0.974940000000     0.0531138  
H182     H      0.721940000000     0.506740000000     0.948450000000     0.0530832  
H183     H      0.730180000000     0.465270000000     0.011760000000     0.0510917  
H184     H      0.723070000000     0.596200000000     0.048400000000     0.0507174  
H185     H      0.765960000000     0.562630000000     0.096270000000     0.0522139  
H186     H      0.734650000000     0.458900000000     0.083340000000     0.0543188  
H187     H      0.681800000000     0.593120000000     0.992910000000     0.0537282  
H188     H      0.687020000000     0.496750000000     0.966070000000     0.0547342  
H189     H      0.771050000000     0.468540000000     0.069830000000     0.0518869  
H190     H      0.729410000000     0.556010000000     0.110640000000     0.054115   
H191     H      0.979250000000     0.503710000000     0.477800000000     0.0529062  
H192     H      0.988370000000     0.593470000000     0.516270000000     0.0526682  
H193     H      0.000220000000     0.574350000000     0.586300000000     0.050601   
H194     H      0.987830000000     0.451230000000     0.533550000000     0.0505693  
H195     H      0.961550000000     0.440260000000     0.599830000000     0.0526369  
H196     H      0.008910000000     0.522160000000     0.641910000000     0.0522937  
H197     H      0.518040000000     0.495940000000     0.481380000000     0.053596   
H198     H      0.526810000000     0.585740000000     0.519470000000     0.0531515  
H199     H      0.970500000000     0.530150000000     0.638320000000     0.0522581  
H200     H      0.999950000000     0.432110000000     0.603320000000     0.0534804  
H201     H      0.837660000000     0.265350000000     0.835000000000     0.0512755  
H202     H      0.817750000000     0.353530000000     0.804160000000     0.0513526  
H203     H      0.874740000000     0.389540000000     0.789790000000     0.0575288  
H204     H      0.902910000000     0.264950000000     0.830840000000     0.0468464  
H205     H      0.949180000000     0.313840000000     0.857800000000     0.0495026  
H206     H      0.939680000000     0.392230000000     0.788510000000     0.0703354  
H207     H      0.847980000000     0.249650000000     0.794660000000     0.0505786  
H208     H      0.827980000000     0.340240000000     0.763000000000     0.0475744  
H209     H      0.928390000000     0.403820000000     0.829640000000     0.0543242  
H210     H      0.960230000000     0.301430000000     0.816630000000     0.0515982  
H211     H      0.551500000000     0.625090000000     0.881030000000     0.0556724  
H212     H      0.586350000000     0.635500000000     0.803140000000     0.0615378  
H213     H      0.566960000000     0.569140000000     0.765710000000     0.0571265  
H214     H      0.518290000000     0.554820000000     0.874250000000     0.0518986  
H215     H      0.034630000000     0.476520000000     0.856470000000     0.0534309  
H216     H      0.534690000000     0.497040000000     0.759220000000     0.0686885  
H217     H      0.516670000000     0.636510000000     0.862990000000     0.0493252  
H218     H      0.551920000000     0.646960000000     0.784200000000     0.0503818  
H219     H      0.569760000000     0.488420000000     0.777860000000     0.0587687  
H220     H      0.999470000000     0.485420000000     0.837350000000     0.0587549  
H221     H      0.560960000000     0.839410000000     0.924600000000     0.0545965  
H222     H      0.591590000000     0.858450000000     0.843240000000     0.0528035  
H223     H      0.603180000000     0.783540000000     0.817120000000     0.0502345  
H224     H      0.561810000000     0.757910000000     0.927810000000     0.0504249  
H225     H      0.607260000000     0.700230000000     0.920640000000     0.0528688  
H226     H      0.604810000000     0.700950000000     0.821080000000     0.0508857  
H227     H      0.527980000000     0.824240000000     0.905260000000     0.0531531  
H228     H      0.558130000000     0.843040000000     0.825100000000     0.0515024  
H229     H      0.637320000000     0.718760000000     0.839600000000     0.0533446  
H230     H      0.574780000000     0.682380000000     0.902110000000     0.0498243  
H231     H      0.941760000000     0.284460000000     0.715060000000     0.0511182  
H232     H      0.883820000000     0.341680000000     0.685460000000     0.0519652  
H233     H      0.829860000000     0.299900000000     0.705140000000     0.0501469  
H234     H      0.910380000000     0.220440000000     0.746540000000     0.0459299  
H235     H      0.865300000000     0.165090000000     0.726190000000     0.0496266  
H236     H      0.798750000000     0.237900000000     0.736920000000     0.0561375  
H237     H      0.933390000000     0.295440000000     0.756880000000     0.0495177  
H238     H      0.873570000000     0.354460000000     0.726360000000     0.0493714  
H239     H      0.806350000000     0.223370000000     0.695680000000     0.0533301  
H240     H      0.857380000000     0.180280000000     0.767180000000     0.0502461  
H241     H      0.899000000000     0.154420000000     0.803000000000     0.0431252  
H242     H      0.866970000000     0.088640000000     0.748430000000     0.0634027  
H243     H      0.912800000000     0.030050000000     0.742240000000     0.0521941  
H244     H      0.957420000000     0.121720000000     0.818300000000     0.0505886  
H245     H      0.507620000000     0.094810000000     0.774140000000     0.0525024  
H246     H      0.971040000000     0.997290000000     0.757340000000     0.0527571  
H247     H      0.894730000000     0.122850000000     0.837060000000     0.0509618  
H248     H      0.862350000000     0.056300000000     0.781860000000     0.0591976  
H249     H      0.975730000000     0.029120000000     0.723550000000     0.0488425  
H250     H      0.003240000000     0.063400000000     0.812250000000     0.0687409  
H251     H      0.597050000000     0.054290000000     0.821980000000     0.0576588  
H252     H      0.578180000000     0.105610000000     0.749240000000     0.0497264  
H253     H      0.619100000000     0.075930000000     0.698770000000     0.0505286  
H254     H      0.644900000000     0.004810000000     0.799340000000     0.0546036  
H255     H      0.702280000000     0.015760000000     0.766120000000     0.0663827  
H256     H      0.667190000000     0.026570000000     0.676060000000     0.047687   
H257     H      0.580310000000     0.013520000000     0.804490000000     0.0675381  
H258     H      0.561630000000     0.064580000000     0.732150000000     0.0524401  
H259     H      0.683700000000     0.067290000000     0.693720000000     0.0613283  
H260     H      0.685650000000     0.974970000000     0.748670000000     0.0515616  
H261     H      0.658850000000     0.829630000000     0.383130000000     0.0532129  
H262     H      0.588660000000     0.876580000000     0.391160000000     0.0523771  
H263     H      0.549190000000     0.816280000000     0.411800000000     0.0503711  
H264     H      0.644810000000     0.752450000000     0.401570000000     0.0505425  
H265     H      0.603190000000     0.695870000000     0.378270000000     0.0525144  
H266     H      0.534820000000     0.737930000000     0.429070000000     0.0526227  
H267     H      0.661280000000     0.827170000000     0.427040000000     0.0525679  
H268     H      0.591850000000     0.873460000000     0.434980000000     0.0521235  
H269     H      0.532970000000     0.742640000000     0.385270000000     0.0527681  
H270     H      0.604480000000     0.691660000000     0.422130000000     0.0526549  
H271     H      0.684070000000     0.961560000000     0.534310000000     0.0514093  
H272     H      0.669720000000     0.055730000000     0.510760000000     0.0516212  
H273     H      0.704330000000     0.099660000000     0.559540000000     0.0497697  
H274     H      0.724940000000     0.969480000000     0.591550000000     0.0502279  
H275     H      0.724560000000     0.008360000000     0.655740000000     0.0541267  
H276     H      0.744800000000     0.108010000000     0.616130000000     0.0519239  
H277     H      0.720740000000     0.964760000000     0.519400000000     0.0536106  
H278     H      0.706140000000     0.060850000000     0.495520000000     0.0534966  
H279     H      0.708730000000     0.103860000000     0.632620000000     0.0490541  
H280     H      0.760410000000     0.013370000000     0.638960000000     0.0530338  
H281     H      0.911600000000     0.245060000000     0.226610000000     0.0526993  
H282     H      0.841310000000     0.198340000000     0.228460000000     0.0523305  
H283     H      0.800680000000     0.255710000000     0.203880000000     0.050576   
H284     H      0.896670000000     0.319610000000     0.200710000000     0.0504649  
H285     H      0.856170000000     0.379570000000     0.220010000000     0.0523894  
H286     H      0.785500000000     0.330880000000     0.178790000000     0.0528549  
H287     H      0.911820000000     0.241940000000     0.182650000000     0.0528048  
H288     H      0.841770000000     0.195500000000     0.184490000000     0.0529023  
H289     H      0.785770000000     0.332660000000     0.222810000000     0.0530798  
H290     H      0.855330000000     0.377290000000     0.176020000000     0.0525918  
H291     H      0.964970000000     0.954540000000     0.993440000000     0.0536734  
H292     H      0.957590000000     0.046590000000     0.961070000000     0.0519118  
H293     H      0.456700000000     0.094380000000     0.022010000000     0.0502838  
H294     H      0.965890000000     0.966660000000     0.066670000000     0.0509128  
H295     H      0.928040000000     0.004730000000     0.116800000000     0.0528149  
H296     H      0.458530000000     0.106870000000     0.093350000000     0.0537282  
H297     H      0.503190000000     0.964690000000     0.007020000000     0.0542715  
H298     H      0.495550000000     0.058780000000     0.974070000000     0.0529     
H299     H      0.920730000000     0.096800000000     0.084340000000     0.0521888  
H300     H      0.466120000000     0.012860000000     0.126410000000     0.0537654  
H301     H      0.832500000000     0.027280000000     0.237090000000     0.054463   
H302     H      0.867330000000     0.062180000000     0.313810000000     0.0542416  
H303     H      0.836820000000     0.022080000000     0.364130000000     0.0501798  
H304     H      0.790630000000     0.974220000000     0.262120000000     0.0505805  
H305     H      0.741640000000     0.979580000000     0.306530000000     0.0542277  
H306     H      0.789490000000     0.970840000000     0.389840000000     0.0511988  
H307     H      0.854140000000     0.986380000000     0.242050000000     0.0514241  
H308     H      0.887100000000     0.019430000000     0.314900000000     0.0511718  
H309     H      0.776080000000     0.016660000000     0.382460000000     0.0537612  
H310     H      0.756880000000     0.935580000000     0.317380000000     0.0520613  
H311     H      0.637690000000     0.057540000000     0.306650000000     0.0513414  
H312     H      0.602310000000     0.085400000000     0.379820000000     0.0514193  
H313     H      0.539230000000     0.097630000000     0.358110000000     0.0502236  
H314     H      0.588770000000     0.057280000000     0.255560000000     0.0505799  
H315     H      0.041230000000     0.108900000000     0.230670000000     0.0513613  
H316     H      0.491630000000     0.094000000000     0.312140000000     0.0544532  
H317     H      0.618340000000     0.014500000000     0.304910000000     0.0542405  
H318     H      0.581000000000     0.043900000000     0.381900000000     0.0541742  
H319     H      0.506330000000     0.138920000000     0.303550000000     0.0516398  
H320     H      0.028570000000     0.062280000000     0.235230000000     0.0543101  
N1       N      0.076410000000     0.531030000000     0.337730000000    -0.150947   
N2       N      0.191050000000     0.473200000000     0.249040000000    -0.151155   
N3       N      0.326530000000     0.545600000000     0.252690000000    -0.150951   
N4       N      0.440550000000     0.603650000000     0.342130000000    -0.150992   
N5       N      0.253400000000     0.506500000000     0.103910000000    -0.150876   
N6       N      0.195040000000     0.553390000000     0.957630000000    -0.150712   
N7       N      0.483880000000     0.475110000000     0.634200000000    -0.151675   
N8       N      0.005160000000     0.551370000000     0.485470000000    -0.150973   
N9       N      0.454480000000     0.360090000000     0.827560000000    -0.0845881  
N10      N      0.319030000000     0.301340000000     0.793250000000    -0.0929873  
N11      N      0.533540000000     0.471380000000     0.805390000000    -0.0805711  
N12      N      0.052620000000     0.650920000000     0.835640000000    -0.0924394  
N13      N      0.110600000000     0.684620000000     0.870400000000    -0.150782   
N14      N      0.053160000000     0.856330000000     0.874980000000    -0.150735   
N15      N      0.323180000000     0.190800000000     0.733040000000    -0.151736   
N16      N      0.416660000000     0.334090000000     0.721680000000    -0.151797   
N17      N      0.500090000000     0.038990000000     0.763130000000    -0.0869103  
N18      N      0.369280000000     0.114090000000     0.795000000000    -0.0875991  
N19      N      0.196330000000     0.019460000000     0.714140000000    -0.0840857  
N20      N      0.068630000000     0.065360000000     0.783490000000    -0.0876996  
N21      N      0.062760000000     0.701900000000     0.403260000000    -0.151793   
N22      N      0.131580000000     0.866600000000     0.409340000000    -0.151836   
N23      N      0.239000000000     0.065530000000     0.648780000000    -0.152206   
N24      N      0.192080000000     0.006100000000     0.500750000000    -0.150991   
N25      N      0.314170000000     0.369840000000     0.199090000000    -0.151705   
N26      N      0.382730000000     0.205020000000     0.206560000000    -0.151757   
N27      N      0.440700000000     0.061100000000     0.118960000000    -0.150892   
N28      N      0.984810000000     0.000610000000     0.970520000000    -0.15053    
N29      N      0.254350000000     0.973550000000     0.356180000000    -0.151217   
N30      N      0.369180000000     0.032460000000     0.268300000000    -0.150939   
N31      N      0.005340000000     0.102670000000     0.262680000000    -0.150881   
N32      N      0.118630000000     0.040600000000     0.351290000000    -0.1508     
N33      N      0.576340000000     0.531120000000     0.337220000000    -0.150924   
N34      N      0.691290000000     0.473550000000     0.248930000000    -0.151061   
N35      N      0.826830000000     0.545920000000     0.253010000000    -0.150941   
N36      N      0.940750000000     0.603770000000     0.342680000000    -0.151023   
N37      N      0.753980000000     0.506860000000     0.104030000000    -0.150916   
N38      N      0.695550000000     0.553580000000     0.957730000000    -0.150815   
N39      N      0.983380000000     0.474100000000     0.634430000000    -0.151721   
N40      N      0.505190000000     0.551830000000     0.485000000000    -0.151121   
N41      N      0.956420000000     0.358280000000     0.825720000000    -0.08392    
N42      N      0.820990000000     0.296470000000     0.795870000000    -0.0929766  
N43      N      0.033080000000     0.470170000000     0.805490000000    -0.0806433  
N44      N      0.553300000000     0.652120000000     0.835500000000    -0.0924619  
N45      N      0.611480000000     0.685000000000     0.870600000000    -0.150795   
N46      N      0.555280000000     0.857350000000     0.875430000000    -0.150717   
N47      N      0.823410000000     0.188620000000     0.732880000000    -0.151771   
N48      N      0.916230000000     0.332580000000     0.721480000000    -0.151707   
N49      N      0.001230000000     0.039900000000     0.765210000000    -0.0854888  
N50      N      0.868950000000     0.111510000000     0.795720000000    -0.0874275  
N51      N      0.696030000000     0.016900000000     0.715100000000    -0.08395    
N52      N      0.568030000000     0.063910000000     0.783140000000    -0.0874677  
N53      N      0.562590000000     0.702070000000     0.402440000000    -0.151824   
N54      N      0.631400000000     0.866770000000     0.408880000000    -0.151902   
N55      N      0.738820000000     0.063700000000     0.649460000000    -0.152296   
N56      N      0.691740000000     0.005500000000     0.501110000000    -0.150994   
N57      N      0.814460000000     0.370150000000     0.199290000000    -0.151639   
N58      N      0.882840000000     0.205200000000     0.206570000000    -0.151816   
N59      N      0.940330000000     0.061050000000     0.119040000000    -0.150994   
N60      N      0.486720000000     0.001340000000     0.970830000000    -0.150653   
N61      N      0.754300000000     0.973870000000     0.356490000000    -0.151171   
N62      N      0.869130000000     0.032830000000     0.268620000000    -0.151004   
N63      N      0.505240000000     0.102750000000     0.262810000000    -0.151098   
N64      N      0.618570000000     0.040990000000     0.351520000000    -0.150837   
O1       O      0.423530000000     0.169560000000     0.209820000000    -0.249616   
O2       O      0.386080000000     0.055050000000     0.219730000000    -0.245514   
O3       O      0.456530000000     0.113650000000     0.260800000000    -0.244414   
O4       O      0.430450000000     0.107720000000     0.154510000000    -0.250005   
O5       O      0.434680000000     0.052940000000     0.173930000000    -0.245046   
O6       O      0.477420000000     0.093780000000     0.217340000000    -0.25073    
O7       O      0.382180000000     0.142440000000     0.210150000000    -0.252736   
O8       O      0.406070000000     0.073910000000     0.264110000000    -0.247865   
O9       O      0.206200000000     0.959120000000     0.358200000000    -0.243636   
O10      O      0.178600000000     0.016850000000     0.447860000000    -0.244685   
O11      O      0.172210000000     0.902120000000     0.404720000000    -0.249687   
O12      O      0.155930000000     0.999650000000     0.355050000000    -0.248186   
O13      O      0.134670000000     0.016060000000     0.399470000000    -0.243757   
O14      O      0.131240000000     0.929340000000     0.410390000000    -0.253429   
O15      O      0.225800000000     0.982560000000     0.401020000000    -0.251731   
O16      O      0.186630000000     0.960900000000     0.462500000000    -0.249616   
O17      O      0.278180000000     0.165310000000     0.727700000000    -0.246242   
O18      O      0.256120000000     0.055080000000     0.700310000000    -0.246528   
O19      O      0.237590000000     0.135310000000     0.785470000000    -0.224348   
O20      O      0.272780000000     0.062390000000     0.790560000000    -0.226687   
O21      O      0.300410000000     0.052660000000     0.749370000000    -0.224261   
O22      O      0.212920000000     0.096590000000     0.757660000000    -0.234253   
O23      O      0.312140000000     0.131870000000     0.747690000000    -0.251809   
O24      O      0.246930000000     0.110800000000     0.686420000000    -0.250609   
O25      O      0.975630000000     0.959340000000     0.858620000000    -0.229087   
O26      O      0.074790000000     0.981450000000     0.897000000000    -0.228846   
O27      O      0.048000000000     0.914410000000     0.854450000000    -0.251514   
O28      O      0.005450000000     0.956850000000     0.937960000000    -0.241477   
O29      O      0.001070000000     0.011560000000     0.918700000000    -0.250982   
O30      O      0.030400000000     0.903030000000     0.902050000000    -0.241842   
O31      O      0.007790000000     0.981940000000     0.826880000000    -0.225624   
O32      O      0.052910000000     0.020990000000     0.867260000000    -0.228567   
O33      O      0.503650000000     0.401840000000     0.769680000000    -0.222811   
O34      O      0.430840000000     0.458400000000     0.754790000000    -0.232391   
O35      O      0.459950000000     0.361330000000     0.733580000000    -0.251829   
O36      O      0.475560000000     0.425700000000     0.667340000000    -0.249626   
O37      O      0.480410000000     0.478730000000     0.689790000000    -0.253307   
O38      O      0.425890000000     0.395200000000     0.714140000000    -0.248283   
O39      O      0.523660000000     0.413950000000     0.723700000000    -0.229329   
O40      O      0.473160000000     0.476490000000     0.768450000000    -0.23034    
O41      O      0.138260000000     0.640160000000     0.846290000000    -0.251366   
O42      O      0.175570000000     0.538060000000     0.908150000000    -0.247497   
O43      O      0.195620000000     0.601720000000     0.843470000000    -0.224492   
O44      O      0.114740000000     0.550130000000     0.834970000000    -0.228477   
O45      O      0.113330000000     0.535360000000     0.885510000000    -0.22639    
O46      O      0.177920000000     0.551510000000     0.824940000000    -0.222746   
O47      O      0.120930000000     0.629260000000     0.894050000000    -0.250392   
O48      O      0.172670000000     0.594410000000     0.923680000000    -0.246735   
O49      O      0.967560000000     0.594480000000     0.388910000000    -0.250586   
O50      O      0.009740000000     0.547680000000     0.429980000000    -0.246205   
O51      O      0.021860000000     0.666570000000     0.400340000000    -0.250021   
O52      O      0.039110000000     0.571870000000     0.342350000000    -0.246434   
O53      O      0.059640000000     0.553200000000     0.386480000000    -0.245666   
O54      O      0.063140000000     0.639600000000     0.396870000000    -0.252768   
O55      O      0.989810000000     0.611360000000     0.345320000000    -0.24463    
O56      O      0.015260000000     0.600600000000     0.452730000000    -0.249923   
O57      O      0.239560000000     0.460830000000     0.247130000000    -0.244105   
O58      O      0.261750000000     0.518950000000     0.157860000000    -0.245411   
O59      O      0.273310000000     0.405270000000     0.200680000000    -0.249131   
O60      O      0.288620000000     0.505520000000     0.249460000000    -0.248965   
O61      O      0.311250000000     0.518850000000     0.205120000000    -0.245733   
O62      O      0.314530000000     0.432580000000     0.198270000000    -0.252178   
O63      O      0.219360000000     0.483110000000     0.204160000000    -0.251022   
O64      O      0.264470000000     0.462660000000     0.141870000000    -0.250157   
O65      O      0.923590000000     0.169670000000     0.209850000000    -0.249593   
O66      O      0.886120000000     0.055100000000     0.219990000000    -0.245653   
O67      O      0.956650000000     0.113770000000     0.260760000000    -0.24462    
O68      O      0.930310000000     0.107750000000     0.154580000000    -0.250086   
O69      O      0.934460000000     0.052980000000     0.174030000000    -0.245025   
O70      O      0.977380000000     0.093650000000     0.217310000000    -0.250857   
O71      O      0.882210000000     0.142620000000     0.210190000000    -0.252735   
O72      O      0.905950000000     0.074370000000     0.264310000000    -0.247922   
O73      O      0.706190000000     0.959160000000     0.358440000000    -0.2436     
O74      O      0.678520000000     0.016680000000     0.448210000000    -0.244761   
O75      O      0.672050000000     0.902280000000     0.404590000000    -0.249552   
O76      O      0.655910000000     0.000090000000     0.355230000000    -0.24828    
O77      O      0.634510000000     0.016200000000     0.399640000000    -0.243866   
O78      O      0.631060000000     0.929500000000     0.410110000000    -0.253419   
O79      O      0.725620000000     0.982990000000     0.401200000000    -0.251758   
O80      O      0.686210000000     0.960580000000     0.462610000000    -0.249695   
O81      O      0.778200000000     0.163380000000     0.729180000000    -0.246141   
O82      O      0.755950000000     0.052890000000     0.700920000000    -0.246017   
O83      O      0.737920000000     0.132720000000     0.786080000000    -0.223701   
O84      O      0.774560000000     0.061430000000     0.791720000000    -0.226245   
O85      O      0.800370000000     0.049630000000     0.749480000000    -0.22396    
O86      O      0.713540000000     0.093420000000     0.758570000000    -0.234161   
O87      O      0.812850000000     0.129270000000     0.746600000000    -0.252422   
O88      O      0.747320000000     0.108780000000     0.687110000000    -0.250853   
O89      O      0.479340000000     0.961440000000     0.858100000000    -0.229229   
O90      O      0.578140000000     0.981450000000     0.898390000000    -0.228958   
O91      O      0.550850000000     0.915670000000     0.855190000000    -0.251698   
O92      O      0.507990000000     0.957870000000     0.938480000000    -0.241773   
O93      O      0.503580000000     0.012620000000     0.919320000000    -0.250934   
O94      O      0.532810000000     0.904210000000     0.902570000000    -0.241837   
O95      O      0.512230000000     0.984460000000     0.827540000000    -0.226111   
O96      O      0.556680000000     0.022550000000     0.869990000000    -0.228997   
O97      O      0.002950000000     0.400120000000     0.769760000000    -0.222554   
O98      O      0.930290000000     0.457290000000     0.754610000000    -0.23164    
O99      O      0.959750000000     0.359690000000     0.732550000000    -0.251752   
O100     O      0.974900000000     0.424580000000     0.667390000000    -0.249898   
O101     O      0.979990000000     0.477460000000     0.690040000000    -0.253464   
O102     O      0.925100000000     0.393940000000     0.715060000000    -0.248336   
O103     O      0.023190000000     0.412940000000     0.724040000000    -0.229144   
O104     O      0.972630000000     0.474480000000     0.769100000000    -0.230439   
O105     O      0.639020000000     0.640380000000     0.846570000000    -0.251374   
O106     O      0.676020000000     0.538170000000     0.908310000000    -0.247525   
O107     O      0.695960000000     0.601120000000     0.843400000000    -0.224446   
O108     O      0.614540000000     0.550570000000     0.835540000000    -0.228567   
O109     O      0.613680000000     0.535410000000     0.886010000000    -0.226225   
O110     O      0.677700000000     0.551200000000     0.824930000000    -0.222924   
O111     O      0.621340000000     0.629460000000     0.894170000000    -0.250424   
O112     O      0.673040000000     0.594510000000     0.923830000000    -0.246816   
O113     O      0.467420000000     0.594470000000     0.388330000000    -0.25048    
O114     O      0.509760000000     0.547920000000     0.429510000000    -0.246145   
O115     O      0.521700000000     0.666720000000     0.399530000000    -0.250125   
O116     O      0.539050000000     0.572000000000     0.341740000000    -0.24659    
O117     O      0.559460000000     0.553260000000     0.385920000000    -0.245738   
O118     O      0.562980000000     0.639760000000     0.396180000000    -0.25294    
O119     O      0.489610000000     0.611320000000     0.344690000000    -0.244468   
O120     O      0.515110000000     0.600970000000     0.452070000000    -0.249956   
O121     O      0.739810000000     0.461190000000     0.247180000000    -0.244062   
O122     O      0.762190000000     0.519320000000     0.158000000000    -0.245375   
O123     O      0.773630000000     0.405640000000     0.200860000000    -0.249132   
O124     O      0.788920000000     0.505840000000     0.249680000000    -0.248914   
O125     O      0.811610000000     0.519210000000     0.205390000000    -0.245727   
O126     O      0.814880000000     0.432890000000     0.198490000000    -0.252226   
O127     O      0.719730000000     0.483510000000     0.204150000000    -0.251013   
O128     O      0.765000000000     0.463030000000     0.142010000000    -0.250133   


