data_structure

_audit_creation_method RASPA-1.0
_audit_creation_date 2023-5-23
_audit_author_name 'Poobodin Mano'

_cell_length_a    46.5398
_cell_length_b    46.564
_cell_length_c    47.0014
_cell_angle_alpha 90.0145
_cell_angle_beta  90.0649
_cell_angle_gamma 119.989
_cell_volume      88219.4

_symmetry_cell_setting          triclinic
_symmetry_space_group_name_Hall 'P 1'
_symmetry_space_group_name_H-M  'P 1'
_symmetry_Int_Tables_number     1

_symmetry_equiv_pos_as_xyz 'x,y,z'

loop_
_atom_site_label
_atom_site_type_symbol
_atom_site_fract_x
_atom_site_fract_y
_atom_site_fract_z
_atom_site_charge
C1       C      0.506180000000     0.435830000000     0.172820000000     0.341869   
C2       C      0.505610000000     0.342430000000     0.126640000000     0.342      
C3       C      0.506540000000     0.435340000000     0.078720000000     0.341832   
C4       C      0.599330000000     0.435930000000     0.126250000000     0.341844   
C5       C      0.432200000000     0.604440000000     0.376390000000     0.341991   
C6       C      0.431590000000     0.511020000000     0.422740000000     0.342006   
C7       C      0.338450000000     0.510970000000     0.376300000000     0.341989   
C8       C      0.431200000000     0.511510000000     0.328640000000     0.342008   
C9       C      0.800970000000     0.436130000000     0.127440000000     0.341908   
C10      C      0.893520000000     0.435820000000     0.175120000000     0.341796   
C11      C      0.801130000000     0.342640000000     0.128310000000     0.341984   
C12      C      0.893670000000     0.435690000000     0.081010000000     0.341957   
C13      C      0.136760000000     0.604420000000     0.378560000000     0.341862   
C14      C      0.044130000000     0.511340000000     0.331240000000     0.341872   
C15      C      0.136860000000     0.510890000000     0.377760000000     0.341925   
C16      C      0.044410000000     0.511280000000     0.425350000000     0.341993   
C17      C      0.505860000000     0.141180000000     0.128540000000     0.341964   
C18      C      0.506470000000     0.048430000000     0.082200000000     0.341894   
C19      C      0.599590000000     0.141310000000     0.129000000000     0.341907   
C20      C      0.506680000000     0.049120000000     0.176300000000     0.34194    
C21      C      0.338370000000     0.805680000000     0.378940000000     0.341875   
C22      C      0.431330000000     0.897880000000     0.426150000000     0.341841   
C23      C      0.432080000000     0.805760000000     0.378230000000     0.342127   
C24      C      0.431480000000     0.898490000000     0.332050000000     0.341849   
C25      C      0.422580000000     0.933010000000     0.296520000000    -0.0278462  
C26      C      0.515720000000     0.014940000000     0.212080000000    -0.0278122  
C27      C      0.463360000000     0.014720000000     0.211900000000    -0.0279455  
C28      C      0.463670000000     0.992860000000     0.234710000000     0.01875    
C29      C      0.493530000000     0.992990000000     0.234810000000     0.0186762  
C30      C      0.499870000000     0.974170000000     0.254450000000    -0.0653063  
C31      C      0.474950000000     0.933280000000     0.296710000000    -0.0277901  
C32      C      0.438470000000     0.973890000000     0.254230000000    -0.065331   
C33      C      0.474680000000     0.955220000000     0.273970000000     0.0187032  
C34      C      0.444810000000     0.955070000000     0.273860000000     0.0187226  
C35      C      0.474560000000     0.932130000000     0.461980000000    -0.027903   
C36      C      0.463080000000     0.013790000000     0.046640000000    -0.0278427  
C37      C      0.515300000000     0.013740000000     0.046790000000    -0.0279316  
C38      C      0.493110000000     0.991770000000     0.024010000000     0.0187492  
C39      C      0.463340000000     0.991810000000     0.023920000000     0.0186748  
C40      C      0.438210000000     0.972970000000     0.004240000000    -0.0652036  
C41      C      0.422370000000     0.932230000000     0.461810000000    -0.0279098  
C42      C      0.499410000000     0.972880000000     0.504430000000    -0.0653372  
C43      C      0.444510000000     0.954090000000     0.484670000000     0.0187213  
C44      C      0.474270000000     0.954030000000     0.484760000000     0.0187351  
C45      C      0.175500000000     0.656380000000     0.352930000000    -0.028112   
C46      C      0.286780000000     0.766570000000     0.404830000000    -0.0280354  
C47      C      0.286390000000     0.767020000000     0.353130000000    -0.0280828  
C48      C      0.255140000000     0.738870000000     0.364210000000     0.0185381  
C49      C      0.255360000000     0.738610000000     0.393710000000     0.0185297  
C50      C      0.229880000000     0.712720000000     0.409210000000    -0.065269   
C51      C      0.175900000000     0.655940000000     0.404620000000    -0.0280205  
C52      C      0.229420000000     0.713240000000     0.348600000000    -0.0652604  
C53      C      0.203960000000     0.687300000000     0.393610000000     0.0185214  
C54      C      0.203730000000     0.687550000000     0.364120000000     0.0185454  
C55      C      0.762250000000     0.290600000000     0.102720000000    -0.0280608  
C56      C      0.651340000000     0.180500000000     0.154800000000    -0.0280673  
C57      C      0.651400000000     0.179910000000     0.103100000000    -0.0280793  
C58      C      0.682710000000     0.208110000000     0.114130000000     0.0185023  
C59      C      0.682680000000     0.208440000000     0.143620000000     0.0185239  
C60      C      0.708250000000     0.234380000000     0.159090000000    -0.0652902  
C61      C      0.762170000000     0.291170000000     0.154410000000    -0.0280067  
C62      C      0.708320000000     0.233710000000     0.098480000000    -0.0652469  
C63      C      0.734060000000     0.259780000000     0.143440000000     0.0184976  
C64      C      0.734100000000     0.259450000000     0.113950000000     0.0184981  
C65      C      0.009650000000     0.467970000000     0.295630000000    -0.0265499  
C66      C      0.927840000000     0.479160000000     0.210820000000    -0.0277794  
C67      C      0.928060000000     0.427060000000     0.210760000000    -0.0277886  
C68      C      0.949930000000     0.449250000000     0.233580000000     0.0186348  
C69      C      0.949820000000     0.478970000000     0.233620000000     0.0185888  
C70      C      0.968640000000     0.504130000000     0.253270000000    -0.0650716  
C71      C      0.009500000000     0.520110000000     0.295680000000    -0.0266219  
C72      C      0.968860000000     0.443020000000     0.253200000000    -0.0651184  
C73      C      0.987570000000     0.497900000000     0.272890000000     0.0180958  
C74      C      0.987670000000     0.468180000000     0.272860000000     0.018092   
C75      C      0.928270000000     0.426910000000     0.045500000000    -0.027775   
C76      C      0.009910000000     0.520060000000     0.460950000000    -0.0264531  
C77      C      0.010050000000     0.467920000000     0.460930000000    -0.0265888  
C78      C      0.988060000000     0.468100000000     0.483660000000     0.018106   
C79      C      0.987990000000     0.497840000000     0.483680000000     0.0180474  
C80      C      0.969050000000     0.504070000000     0.003250000000    -0.0650511  
C81      C      0.928190000000     0.479080000000     0.045530000000    -0.0277863  
C82      C      0.969180000000     0.442910000000     0.503220000000    -0.0651229  
C83      C      0.950180000000     0.478890000000     0.022810000000     0.0186148  
C84      C      0.950240000000     0.449140000000     0.022790000000     0.018595   
C85      C      0.444770000000     0.767010000000     0.351910000000    -0.0280072  
C86      C      0.445360000000     0.656100000000     0.402580000000    -0.0280201  
C87      C      0.444900000000     0.656340000000     0.350890000000    -0.0280213  
C88      C      0.448210000000     0.687590000000     0.362240000000     0.0185178  
C89      C      0.448470000000     0.687450000000     0.391740000000     0.0184937  
C90      C      0.448360000000     0.712930000000     0.407540000000    -0.0652528  
C91      C      0.445250000000     0.766790000000     0.403600000000    -0.0280051  
C92      C      0.447810000000     0.713210000000     0.346920000000    -0.0653283  
C93      C      0.448380000000     0.738760000000     0.392210000000     0.0184788  
C94      C      0.448110000000     0.738890000000     0.362720000000     0.0185354  
C95      C      0.286820000000     0.498010000000     0.402410000000    -0.0280782  
C96      C      0.175700000000     0.498280000000     0.351520000000    -0.0280191  
C97      C      0.175950000000     0.497890000000     0.403220000000    -0.0281946  
C98      C      0.204020000000     0.494810000000     0.391880000000     0.0185809  
C99      C      0.203880000000     0.495020000000     0.362390000000     0.0184983  
C100     C      0.229610000000     0.495380000000     0.346640000000    -0.065234   
C101     C      0.286550000000     0.498370000000     0.350710000000    -0.0280587  
C102     C      0.229920000000     0.494940000000     0.407260000000    -0.0653044  
C103     C      0.255300000000     0.495100000000     0.362010000000     0.0184987  
C104     C      0.255450000000     0.494890000000     0.391510000000     0.0185541  
C105     C      0.762050000000     0.449280000000     0.152900000000    -0.028045   
C106     C      0.651050000000     0.448380000000     0.100550000000    -0.0280531  
C107     C      0.651170000000     0.449140000000     0.152250000000    -0.0280904  
C108     C      0.682470000000     0.452210000000     0.141290000000     0.0185458  
C109     C      0.682400000000     0.451780000000     0.111800000000     0.0184944  
C110     C      0.707960000000     0.451360000000     0.096390000000    -0.0652771  
C111     C      0.761910000000     0.448500000000     0.101210000000    -0.0279989  
C112     C      0.708110000000     0.452260000000     0.157010000000    -0.0653349  
C113     C      0.733790000000     0.451800000000     0.112100000000     0.0184907  
C114     C      0.733870000000     0.452250000000     0.141600000000     0.0185309  
C115     C      0.492660000000     0.290380000000     0.101230000000    -0.0280663  
C116     C      0.492940000000     0.180280000000     0.153970000000    -0.0280372  
C117     C      0.492830000000     0.179720000000     0.102270000000    -0.0280676  
C118     C      0.489570000000     0.207890000000     0.113100000000     0.0185381  
C119     C      0.489640000000     0.208220000000     0.142590000000     0.0185002  
C120     C      0.489860000000     0.234160000000     0.157910000000    -0.0652781  
C121     C      0.492790000000     0.290950000000     0.152920000000    -0.0279771  
C122     C      0.489720000000     0.233490000000     0.097290000000    -0.0653147  
C123     C      0.489600000000     0.259550000000     0.142110000000     0.0184929  
C124     C      0.489530000000     0.259220000000     0.112610000000     0.0185446  
C125     C      0.474990000000     0.519650000000     0.458260000000    -0.0278037  
C126     C      0.463370000000     0.426430000000     0.042850000000    -0.027883   
C127     C      0.515610000000     0.478640000000     0.043040000000    -0.027929   
C128     C      0.493490000000     0.478410000000     0.020180000000     0.018712   
C129     C      0.463710000000     0.448640000000     0.020070000000     0.0187222  
C130     C      0.438580000000     0.442410000000     0.000400000000    -0.0652917  
C131     C      0.422740000000     0.467460000000     0.458070000000    -0.0278779  
C132     C      0.499830000000     0.503620000000     0.500620000000    -0.0652881  
C133     C      0.444920000000     0.467620000000     0.480840000000     0.0187223  
C134     C      0.474710000000     0.497380000000     0.480950000000     0.0187035  
C135     C      0.462680000000     0.427290000000     0.208090000000    -0.0277949  
C136     C      0.474470000000     0.520320000000     0.293010000000    -0.0279021  
C137     C      0.422030000000     0.468320000000     0.292770000000    -0.0278615  
C138     C      0.444190000000     0.468500000000     0.270030000000     0.0187075  
C139     C      0.474090000000     0.498150000000     0.270170000000     0.0187184  
C140     C      0.499290000000     0.504320000000     0.250650000000    -0.0652804  
C141     C      0.515120000000     0.479280000000     0.208340000000    -0.0278256  
C142     C      0.437810000000     0.443350000000     0.250370000000    -0.065277   
C143     C      0.492900000000     0.479170000000     0.230990000000     0.0187048  
C144     C      0.463000000000     0.449520000000     0.230850000000     0.0187002  
C145     C      0.506180000000     0.435830000000     0.672820000000     0.341868   
C146     C      0.505610000000     0.342430000000     0.626640000000     0.341996   
C147     C      0.506540000000     0.435340000000     0.578720000000     0.341769   
C148     C      0.599330000000     0.435930000000     0.626250000000     0.341849   
C149     C      0.432200000000     0.604440000000     0.876390000000     0.342183   
C150     C      0.431590000000     0.511020000000     0.922740000000     0.342006   
C151     C      0.338450000000     0.510970000000     0.876300000000     0.341986   
C152     C      0.431200000000     0.511510000000     0.828640000000     0.342007   
C153     C      0.800980000000     0.436130000000     0.627440000000     0.342002   
C154     C      0.893520000000     0.435820000000     0.675120000000     0.341798   
C155     C      0.801130000000     0.342640000000     0.628310000000     0.341983   
C156     C      0.893670000000     0.435690000000     0.581010000000     0.341773   
C157     C      0.136760000000     0.604410000000     0.878560000000     0.341942   
C158     C      0.044130000000     0.511340000000     0.831240000000     0.342058   
C159     C      0.136860000000     0.510890000000     0.877760000000     0.341924   
C160     C      0.044410000000     0.511280000000     0.925350000000     0.341992   
C161     C      0.505860000000     0.141180000000     0.628540000000     0.341965   
C162     C      0.506470000000     0.048430000000     0.582200000000     0.341897   
C163     C      0.599590000000     0.141310000000     0.629000000000     0.341907   
C164     C      0.506680000000     0.049120000000     0.676300000000     0.341938   
C165     C      0.338380000000     0.805680000000     0.878930000000     0.341925   
C166     C      0.431330000000     0.897880000000     0.926150000000     0.341997   
C167     C      0.432080000000     0.805760000000     0.878230000000     0.342129   
C168     C      0.431480000000     0.898490000000     0.832050000000     0.341845   
C169     C      0.422580000000     0.933010000000     0.796520000000    -0.0278363  
C170     C      0.515720000000     0.014940000000     0.712080000000    -0.0279263  
C171     C      0.463360000000     0.014720000000     0.711900000000    -0.0278788  
C172     C      0.463670000000     0.992860000000     0.734710000000     0.0187241  
C173     C      0.493530000000     0.992990000000     0.734810000000     0.0187273  
C174     C      0.499870000000     0.974180000000     0.754450000000    -0.0653079  
C175     C      0.474950000000     0.933280000000     0.796710000000    -0.0278184  
C176     C      0.438470000000     0.973890000000     0.754220000000    -0.0653106  
C177     C      0.474680000000     0.955220000000     0.773970000000     0.0187153  
C178     C      0.444810000000     0.955070000000     0.773860000000     0.0186957  
C179     C      0.474560000000     0.932130000000     0.961970000000    -0.0278554  
C180     C      0.463080000000     0.013800000000     0.546640000000    -0.0278644  
C181     C      0.515300000000     0.013740000000     0.546790000000    -0.0278849  
C182     C      0.493110000000     0.991770000000     0.524010000000     0.018733   
C183     C      0.463340000000     0.991810000000     0.523920000000     0.0186825  
C184     C      0.438210000000     0.972970000000     0.504240000000    -0.0652393  
C185     C      0.422370000000     0.932230000000     0.961810000000    -0.0278993  
C186     C      0.499410000000     0.972880000000     0.004430000000    -0.0653106  
C187     C      0.444510000000     0.954080000000     0.984670000000     0.0187004  
C188     C      0.474270000000     0.954030000000     0.984760000000     0.0186954  
C189     C      0.175500000000     0.656380000000     0.852930000000    -0.0280741  
C190     C      0.286780000000     0.766570000000     0.904830000000    -0.0280367  
C191     C      0.286390000000     0.767020000000     0.853130000000    -0.028065   
C192     C      0.255140000000     0.738870000000     0.864210000000     0.0185283  
C193     C      0.255360000000     0.738610000000     0.893710000000     0.0185318  
C194     C      0.229880000000     0.712720000000     0.909210000000    -0.0652707  
C195     C      0.175900000000     0.655940000000     0.904620000000    -0.0279918  
C196     C      0.229420000000     0.713240000000     0.848600000000    -0.0652507  
C197     C      0.203960000000     0.687300000000     0.893610000000     0.0185147  
C198     C      0.203730000000     0.687550000000     0.864120000000     0.0185327  
C199     C      0.762250000000     0.290600000000     0.602720000000    -0.0280606  
C200     C      0.651340000000     0.180500000000     0.654800000000    -0.0280669  
C201     C      0.651400000000     0.179910000000     0.603100000000    -0.0280792  
C202     C      0.682710000000     0.208110000000     0.614130000000     0.0185036  
C203     C      0.682680000000     0.208440000000     0.643620000000     0.0185227  
C204     C      0.708250000000     0.234380000000     0.659090000000    -0.0652903  
C205     C      0.762170000000     0.291170000000     0.654410000000    -0.0280068  
C206     C      0.708320000000     0.233710000000     0.598480000000    -0.0652498  
C207     C      0.734060000000     0.259780000000     0.643440000000     0.0184976  
C208     C      0.734100000000     0.259450000000     0.613950000000     0.0184961  
C209     C      0.009650000000     0.467970000000     0.795630000000    -0.0265476  
C210     C      0.927840000000     0.479160000000     0.710820000000    -0.0277789  
C211     C      0.928060000000     0.427060000000     0.710760000000    -0.0277896  
C212     C      0.949930000000     0.449250000000     0.733580000000     0.0186377  
C213     C      0.949820000000     0.478970000000     0.733620000000     0.0185873  
C214     C      0.968640000000     0.504130000000     0.753270000000    -0.0650716  
C215     C      0.009500000000     0.520110000000     0.795680000000    -0.0266124  
C216     C      0.968860000000     0.443020000000     0.753200000000    -0.0651269  
C217     C      0.987570000000     0.497900000000     0.772890000000     0.0180967  
C218     C      0.987670000000     0.468170000000     0.772860000000     0.0180973  
C219     C      0.928270000000     0.426910000000     0.545490000000    -0.0278269  
C220     C      0.009910000000     0.520060000000     0.960950000000    -0.0264521  
C221     C      0.010050000000     0.467920000000     0.960930000000    -0.0265677  
C222     C      0.988060000000     0.468110000000     0.983660000000     0.0180575  
C223     C      0.987990000000     0.497840000000     0.983680000000     0.0180414  
C224     C      0.969050000000     0.504070000000     0.503250000000    -0.065059   
C225     C      0.928190000000     0.479080000000     0.545530000000    -0.0277407  
C226     C      0.969180000000     0.442920000000     0.003220000000    -0.0650126  
C227     C      0.950190000000     0.478890000000     0.522810000000     0.018582   
C228     C      0.950240000000     0.449140000000     0.522790000000     0.0186485  
C229     C      0.444770000000     0.767010000000     0.851910000000    -0.0280025  
C230     C      0.445360000000     0.656100000000     0.902580000000    -0.028019   
C231     C      0.444900000000     0.656340000000     0.850890000000    -0.0279764  
C232     C      0.448210000000     0.687590000000     0.862240000000     0.0185155  
C233     C      0.448470000000     0.687450000000     0.891740000000     0.0184898  
C234     C      0.448360000000     0.712930000000     0.907540000000    -0.0652489  
C235     C      0.445250000000     0.766790000000     0.903600000000    -0.0279626  
C236     C      0.447820000000     0.713210000000     0.846920000000    -0.0653205  
C237     C      0.448380000000     0.738760000000     0.892210000000     0.01847    
C238     C      0.448110000000     0.738890000000     0.862720000000     0.018524   
C239     C      0.286820000000     0.498010000000     0.902410000000    -0.0281218  
C240     C      0.175710000000     0.498280000000     0.851520000000    -0.0280589  
C241     C      0.175950000000     0.497900000000     0.903220000000    -0.0281242  
C242     C      0.204020000000     0.494810000000     0.891880000000     0.0185444  
C243     C      0.203880000000     0.495020000000     0.862390000000     0.0185238  
C244     C      0.229610000000     0.495370000000     0.846640000000    -0.0652474  
C245     C      0.286550000000     0.498370000000     0.850710000000    -0.0280642  
C246     C      0.229920000000     0.494940000000     0.907260000000    -0.0652919  
C247     C      0.255300000000     0.495100000000     0.862010000000     0.0185132  
C248     C      0.255450000000     0.494890000000     0.891510000000     0.018559   
C249     C      0.762050000000     0.449280000000     0.652900000000    -0.0280085  
C250     C      0.651050000000     0.448380000000     0.600550000000    -0.0280688  
C251     C      0.651170000000     0.449140000000     0.652240000000    -0.0279423  
C252     C      0.682470000000     0.452210000000     0.641290000000     0.0184695  
C253     C      0.682400000000     0.451780000000     0.611800000000     0.0185439  
C254     C      0.707950000000     0.451360000000     0.596390000000    -0.0652889  
C255     C      0.761910000000     0.448500000000     0.601210000000    -0.0279919  
C256     C      0.708110000000     0.452260000000     0.657010000000    -0.0652996  
C257     C      0.733790000000     0.451800000000     0.612100000000     0.0184769  
C258     C      0.733870000000     0.452250000000     0.641600000000     0.0185129  
C259     C      0.492660000000     0.290380000000     0.601230000000    -0.0280437  
C260     C      0.492940000000     0.180280000000     0.653970000000    -0.0280495  
C261     C      0.492830000000     0.179720000000     0.602270000000    -0.0280605  
C262     C      0.489570000000     0.207890000000     0.613090000000     0.0185094  
C263     C      0.489640000000     0.208220000000     0.642590000000     0.0185319  
C264     C      0.489860000000     0.234160000000     0.657910000000    -0.0653229  
C265     C      0.492800000000     0.290950000000     0.652930000000    -0.0281351  
C266     C      0.489720000000     0.233490000000     0.597300000000    -0.0652444  
C267     C      0.489600000000     0.259550000000     0.642110000000     0.0185739  
C268     C      0.489530000000     0.259220000000     0.612610000000     0.0185008  
C269     C      0.474990000000     0.519650000000     0.958260000000    -0.027798   
C270     C      0.463370000000     0.426430000000     0.542850000000    -0.0278556  
C271     C      0.515610000000     0.478640000000     0.543040000000    -0.0278945  
C272     C      0.493490000000     0.478410000000     0.520180000000     0.0187049  
C273     C      0.463710000000     0.448640000000     0.520070000000     0.0187133  
C274     C      0.438580000000     0.442410000000     0.500400000000    -0.0653132  
C275     C      0.422740000000     0.467460000000     0.958070000000    -0.0278723  
C276     C      0.499830000000     0.503620000000     0.000620000000    -0.0652669  
C277     C      0.444920000000     0.467620000000     0.980840000000     0.0187048  
C278     C      0.474710000000     0.497380000000     0.980950000000     0.0186859  
C279     C      0.462680000000     0.427290000000     0.708090000000    -0.027793   
C280     C      0.474470000000     0.520320000000     0.793010000000    -0.0279101  
C281     C      0.422030000000     0.468320000000     0.792770000000    -0.0278593  
C282     C      0.444190000000     0.468500000000     0.770030000000     0.0187003  
C283     C      0.474090000000     0.498150000000     0.770170000000     0.0187383  
C284     C      0.499290000000     0.504320000000     0.750650000000    -0.0653271  
C285     C      0.515130000000     0.479280000000     0.708340000000    -0.0278793  
C286     C      0.437810000000     0.443350000000     0.750370000000    -0.0652789  
C287     C      0.492900000000     0.479170000000     0.730990000000     0.0187324  
C288     C      0.462990000000     0.449520000000     0.730850000000     0.0186957  
Cd1      Cd     0.529150000000     0.412620000000     0.126090000000     0.50753    
Cd2      Cd     0.408620000000     0.534240000000     0.375990000000     0.507533   
Cd3      Cd     0.847830000000     0.412820000000     0.127960000000     0.507498   
Cd4      Cd     0.090030000000     0.534240000000     0.378250000000     0.507541   
Cd5      Cd     0.529400000000     0.094510000000     0.129030000000     0.507518   
Cd6      Cd     0.408570000000     0.852450000000     0.378840000000     0.507534   
Cd7      Cd     0.529150000000     0.412620000000     0.626090000000     0.507528   
Cd8      Cd     0.408620000000     0.534240000000     0.875990000000     0.507551   
Cd9      Cd     0.847840000000     0.412820000000     0.627960000000     0.507467   
Cd10     Cd     0.090030000000     0.534240000000     0.878250000000     0.507558   
Cd11     Cd     0.529400000000     0.094510000000     0.629030000000     0.507517   
Cd12     Cd     0.408570000000     0.852450000000     0.878840000000     0.507538   
H1       H      0.460220000000     0.035070000000     0.220850000000     0.053429   
H2       H      0.539110000000     0.035400000000     0.221120000000     0.053373   
H3       H      0.523170000000     0.974260000000     0.254520000000     0.0505762  
H4       H      0.415150000000     0.973760000000     0.254130000000     0.0506103  
H5       H      0.416290000000     0.947040000000     0.312030000000     0.0524379  
H6       H      0.478190000000     0.913000000000     0.287710000000     0.0534051  
H7       H      0.443090000000     0.000510000000     0.196360000000     0.0525077  
H8       H      0.522000000000     0.000840000000     0.196640000000     0.0524816  
H9       H      0.495160000000     0.947450000000     0.312320000000     0.0524064  
H10      H      0.399200000000     0.912600000000     0.287420000000     0.0534525  
H11      H      0.538780000000     0.034080000000     0.037830000000     0.0534683  
H12      H      0.460020000000     0.034160000000     0.037600000000     0.0534569  
H13      H      0.414970000000     0.973030000000     0.004160000000     0.0505446  
H14      H      0.522660000000     0.972870000000     0.504490000000     0.0505911  
H15      H      0.494930000000     0.946270000000     0.446560000000     0.0524772  
H16      H      0.398880000000     0.911840000000     0.470710000000     0.0534105  
H17      H      0.521400000000     0.999620000000     0.062360000000     0.0524365  
H18      H      0.442780000000     0.999690000000     0.062120000000     0.052442   
H19      H      0.416280000000     0.946420000000     0.446310000000     0.0525093  
H20      H      0.477530000000     0.911690000000     0.470960000000     0.0534186  
H21      H      0.281420000000     0.784720000000     0.341260000000     0.0521137  
H22      H      0.281990000000     0.784050000000     0.417240000000     0.0520962  
H23      H      0.230700000000     0.711880000000     0.432200000000     0.05037    
H24      H      0.229880000000     0.712800000000     0.325580000000     0.05038    
H25      H      0.157860000000     0.661440000000     0.341050000000     0.052138   
H26      H      0.184770000000     0.642560000000     0.418430000000     0.05342    
H27      H      0.299500000000     0.758320000000     0.338830000000     0.0534012  
H28      H      0.300100000000     0.757610000000     0.418630000000     0.0533872  
H29      H      0.158450000000     0.660800000000     0.417000000000     0.0520966  
H30      H      0.184140000000     0.643230000000     0.338610000000     0.0534339  
H31      H      0.656310000000     0.162200000000     0.091200000000     0.052091   
H32      H      0.656230000000     0.163060000000     0.167180000000     0.0520765  
H33      H      0.707580000000     0.235280000000     0.182080000000     0.0503477  
H34      H      0.707710000000     0.234090000000     0.075460000000     0.0503363  
H35      H      0.779830000000     0.285520000000     0.090790000000     0.0520629  
H36      H      0.753380000000     0.304570000000     0.168260000000     0.0533932  
H37      H      0.638190000000     0.188570000000     0.088850000000     0.0533813  
H38      H      0.638100000000     0.189470000000     0.168650000000     0.053392   
H39      H      0.779710000000     0.286350000000     0.166740000000     0.0520136  
H40      H      0.753500000000     0.303700000000     0.088440000000     0.0533976  
H41      H      0.907710000000     0.403570000000     0.219700000000     0.0533688  
H42      H      0.907380000000     0.482120000000     0.219790000000     0.0533751  
H43      H      0.968560000000     0.527340000000     0.253290000000     0.050407   
H44      H      0.968950000000     0.419820000000     0.253180000000     0.0504194  
H45      H      0.995540000000     0.447670000000     0.311120000000     0.0517995  
H46      H      0.029840000000     0.543580000000     0.286720000000     0.0533489  
H47      H      0.942280000000     0.421000000000     0.195270000000     0.0523917  
H48      H      0.941940000000     0.499490000000     0.195360000000     0.0523694  
H49      H      0.995320000000     0.526200000000     0.311190000000     0.0517915  
H50      H      0.030070000000     0.464960000000     0.286650000000     0.0533264  
H51      H      0.995960000000     0.447620000000     0.445400000000     0.0518113  
H52      H      0.995730000000     0.526180000000     0.445430000000     0.0517969  
H53      H      0.968990000000     0.527290000000     0.003260000000     0.0504001  
H54      H      0.969230000000     0.419690000000     0.503200000000     0.0504329  
H55      H      0.907910000000     0.403460000000     0.036440000000     0.053368   
H56      H      0.942290000000     0.499350000000     0.061080000000     0.05239    
H57      H      0.030490000000     0.464930000000     0.469950000000     0.0533023  
H58      H      0.030270000000     0.543520000000     0.469980000000     0.0532602  
H59      H      0.907790000000     0.482130000000     0.036490000000     0.0533603  
H60      H      0.942400000000     0.420760000000     0.061030000000     0.0523707  
H61      H      0.467300000000     0.661310000000     0.338590000000     0.052046   
H62      H      0.467970000000     0.660950000000     0.414530000000     0.0520467  
H63      H      0.447280000000     0.712180000000     0.430550000000     0.050353   
H64      H      0.446320000000     0.712670000000     0.323930000000     0.0503818  
H65      H      0.467140000000     0.784650000000     0.339700000000     0.0520343  
H66      H      0.423340000000     0.757920000000     0.417800000000     0.0533896  
H67      H      0.422750000000     0.643180000000     0.336920000000     0.0534016  
H68      H      0.423460000000     0.642810000000     0.416750000000     0.0534017  
H69      H      0.467850000000     0.784310000000     0.415670000000     0.0520589  
H70      H      0.422600000000     0.758260000000     0.337990000000     0.0533826  
H71      H      0.184790000000     0.519810000000     0.417420000000     0.0534405  
H72      H      0.184420000000     0.520400000000     0.337620000000     0.0534102  
H73      H      0.230130000000     0.496810000000     0.323640000000     0.0503602  
H74      H      0.230670000000     0.496050000000     0.430270000000     0.0503953  
H75      H      0.300130000000     0.519940000000     0.416570000000     0.0533978  
H76      H      0.281560000000     0.475980000000     0.338380000000     0.0521068  
H77      H      0.158450000000     0.475320000000     0.415260000000     0.0521766  
H78      H      0.158090000000     0.475880000000     0.339280000000     0.0521037  
H79      H      0.299720000000     0.520500000000     0.336780000000     0.0534015  
H80      H      0.281960000000     0.475440000000     0.414370000000     0.0521062  
H81      H      0.656090000000     0.471790000000     0.164130000000     0.0520872  
H82      H      0.655910000000     0.470670000000     0.088140000000     0.0520693  
H83      H      0.707260000000     0.449750000000     0.073400000000     0.0503447  
H84      H      0.707530000000     0.451320000000     0.180020000000     0.0503788  
H85      H      0.779630000000     0.471950000000     0.164850000000     0.0520608  
H86      H      0.753120000000     0.426270000000     0.087390000000     0.0533821  
H87      H      0.637970000000     0.427320000000     0.166500000000     0.0533971  
H88      H      0.637790000000     0.426140000000     0.086710000000     0.0533783  
H89      H      0.779410000000     0.470820000000     0.088880000000     0.0520234  
H90      H      0.753340000000     0.427470000000     0.167190000000     0.053385   
H91      H      0.514840000000     0.188400000000     0.088230000000     0.0534196  
H92      H      0.515010000000     0.189270000000     0.168040000000     0.0533801  
H93      H      0.491200000000     0.235060000000     0.180910000000     0.0503688  
H94      H      0.490950000000     0.233880000000     0.074290000000     0.0503871  
H95      H      0.514650000000     0.303470000000     0.087130000000     0.0534251  
H96      H      0.470320000000     0.286150000000     0.165010000000     0.0520359  
H97      H      0.470330000000     0.162000000000     0.090200000000     0.052092   
H98      H      0.470480000000     0.162820000000     0.166170000000     0.0520778  
H99      H      0.514860000000     0.304350000000     0.166960000000     0.0533754  
H100     H      0.470120000000     0.285300000000     0.089060000000     0.0520831  
H101     H      0.521730000000     0.498930000000     0.058540000000     0.0525098  
H102     H      0.443000000000     0.420240000000     0.058260000000     0.0525149  
H103     H      0.415310000000     0.419190000000     0.000340000000     0.0506083  
H104     H      0.523080000000     0.526870000000     0.500720000000     0.0505644  
H105     H      0.478090000000     0.543090000000     0.467330000000     0.0534374  
H106     H      0.416620000000     0.447250000000     0.442480000000     0.0524323  
H107     H      0.539080000000     0.481670000000     0.034140000000     0.0534004  
H108     H      0.460370000000     0.403010000000     0.033850000000     0.053406   
H109     H      0.399270000000     0.464350000000     0.467050000000     0.0534665  
H110     H      0.495280000000     0.525820000000     0.442760000000     0.0524118  
H111     H      0.415680000000     0.447910000000     0.308180000000     0.0525086  
H112     H      0.494720000000     0.526300000000     0.308540000000     0.0524918  
H113     H      0.522650000000     0.527460000000     0.250780000000     0.0505649  
H114     H      0.414470000000     0.420190000000     0.250280000000     0.0505818  
H115     H      0.459370000000     0.403740000000     0.217080000000     0.0534275  
H116     H      0.521470000000     0.499610000000     0.192840000000     0.0524149  
H117     H      0.398680000000     0.465500000000     0.283740000000     0.0534031  
H118     H      0.477680000000     0.543860000000     0.284100000000     0.0533849  
H119     H      0.538480000000     0.482180000000     0.217450000000     0.0534373  
H120     H      0.442510000000     0.421330000000     0.192470000000     0.0524145  
H121     H      0.460220000000     0.035070000000     0.720850000000     0.0534149  
H122     H      0.539100000000     0.035400000000     0.721120000000     0.0534083  
H123     H      0.523170000000     0.974260000000     0.754520000000     0.0505657  
H124     H      0.415150000000     0.973760000000     0.754130000000     0.0506047  
H125     H      0.416290000000     0.947040000000     0.812030000000     0.0524358  
H126     H      0.478190000000     0.913000000000     0.787720000000     0.0534186  
H127     H      0.443090000000     0.000510000000     0.696360000000     0.0524945  
H128     H      0.522000000000     0.000840000000     0.696640000000     0.0525067  
H129     H      0.495160000000     0.947450000000     0.812320000000     0.052411   
H130     H      0.399200000000     0.912600000000     0.787420000000     0.0534516  
H131     H      0.538780000000     0.034080000000     0.537830000000     0.0534549  
H132     H      0.460020000000     0.034160000000     0.537590000000     0.0534602  
H133     H      0.414970000000     0.973030000000     0.504160000000     0.0505451  
H134     H      0.522660000000     0.972870000000     0.004490000000     0.0505923  
H135     H      0.494930000000     0.946270000000     0.946560000000     0.0524716  
H136     H      0.398880000000     0.911840000000     0.970710000000     0.0534038  
H137     H      0.521400000000     0.999610000000     0.562360000000     0.0524106  
H138     H      0.442780000000     0.999690000000     0.562120000000     0.0524484  
H139     H      0.416280000000     0.946420000000     0.946310000000     0.0525054  
H140     H      0.477530000000     0.911690000000     0.970960000000     0.0533998  
H141     H      0.281420000000     0.784720000000     0.841260000000     0.0521142  
H142     H      0.281990000000     0.784050000000     0.917240000000     0.0521018  
H143     H      0.230690000000     0.711880000000     0.932200000000     0.0503698  
H144     H      0.229880000000     0.712800000000     0.825580000000     0.0503778  
H145     H      0.157850000000     0.661440000000     0.841050000000     0.0521258  
H146     H      0.184770000000     0.642560000000     0.918430000000     0.0534085  
H147     H      0.299510000000     0.758320000000     0.838830000000     0.0533851  
H148     H      0.300100000000     0.757610000000     0.918630000000     0.0533864  
H149     H      0.158450000000     0.660800000000     0.917010000000     0.0520805  
H150     H      0.184140000000     0.643230000000     0.838610000000     0.0534237  
H151     H      0.656310000000     0.162200000000     0.591200000000     0.0520886  
H152     H      0.656230000000     0.163060000000     0.667180000000     0.0520755  
H153     H      0.707580000000     0.235280000000     0.682080000000     0.0503471  
H154     H      0.707720000000     0.234090000000     0.575460000000     0.0503348  
H155     H      0.779830000000     0.285520000000     0.590790000000     0.0520594  
H156     H      0.753380000000     0.304570000000     0.668260000000     0.0533934  
H157     H      0.638190000000     0.188570000000     0.588850000000     0.0533807  
H158     H      0.638100000000     0.189470000000     0.668650000000     0.0533917  
H159     H      0.779710000000     0.286350000000     0.666740000000     0.0520125  
H160     H      0.753500000000     0.303700000000     0.588440000000     0.0533965  
H161     H      0.907710000000     0.403570000000     0.719700000000     0.0533687  
H162     H      0.907380000000     0.482120000000     0.719790000000     0.0533759  
H163     H      0.968560000000     0.527340000000     0.753290000000     0.0504063  
H164     H      0.968950000000     0.419820000000     0.753180000000     0.0504201  
H165     H      0.995540000000     0.447670000000     0.811120000000     0.0517965  
H166     H      0.029840000000     0.543580000000     0.786720000000     0.0533455  
H167     H      0.942280000000     0.421000000000     0.695270000000     0.0523903  
H168     H      0.941940000000     0.499490000000     0.695360000000     0.0523685  
H169     H      0.995320000000     0.526200000000     0.811190000000     0.0517877  
H170     H      0.030070000000     0.464960000000     0.786650000000     0.0533236  
H171     H      0.995960000000     0.447620000000     0.945400000000     0.0518051  
H172     H      0.995730000000     0.526180000000     0.945430000000     0.0517946  
H173     H      0.968990000000     0.527290000000     0.503260000000     0.050394   
H174     H      0.969230000000     0.419690000000     0.003210000000     0.0503899  
H175     H      0.907910000000     0.403460000000     0.536440000000     0.0533838  
H176     H      0.942290000000     0.499360000000     0.561080000000     0.0523676  
H177     H      0.030490000000     0.464930000000     0.969950000000     0.0532949  
H178     H      0.030270000000     0.543520000000     0.969980000000     0.0532576  
H179     H      0.907790000000     0.482130000000     0.536490000000     0.0533473  
H180     H      0.942400000000     0.420760000000     0.561030000000     0.0523795  
H181     H      0.467300000000     0.661310000000     0.838580000000     0.0520238  
H182     H      0.467970000000     0.660960000000     0.914530000000     0.0520428  
H183     H      0.447280000000     0.712180000000     0.930550000000     0.0503494  
H184     H      0.446320000000     0.712670000000     0.823930000000     0.0503769  
H185     H      0.467140000000     0.784650000000     0.839700000000     0.0520327  
H186     H      0.423340000000     0.757920000000     0.917810000000     0.0533656  
H187     H      0.422750000000     0.643180000000     0.836920000000     0.0533864  
H188     H      0.423460000000     0.642810000000     0.916750000000     0.0533993  
H189     H      0.467850000000     0.784310000000     0.915670000000     0.052046   
H190     H      0.422600000000     0.758260000000     0.837990000000     0.0533784  
H191     H      0.184790000000     0.519820000000     0.917420000000     0.0534235  
H192     H      0.184420000000     0.520400000000     0.837620000000     0.0534187  
H193     H      0.230130000000     0.496810000000     0.823640000000     0.0503621  
H194     H      0.230670000000     0.496050000000     0.930270000000     0.0503917  
H195     H      0.300140000000     0.519940000000     0.916570000000     0.0534107  
H196     H      0.281560000000     0.475980000000     0.838380000000     0.0521086  
H197     H      0.158450000000     0.475320000000     0.915260000000     0.0521542  
H198     H      0.158090000000     0.475880000000     0.839280000000     0.0521128  
H199     H      0.299720000000     0.520500000000     0.836780000000     0.0534018  
H200     H      0.281960000000     0.475450000000     0.914370000000     0.0521212  
H201     H      0.656090000000     0.471790000000     0.664130000000     0.0520414  
H202     H      0.655910000000     0.470670000000     0.588140000000     0.0520711  
H203     H      0.707260000000     0.449740000000     0.573400000000     0.0503423  
H204     H      0.707530000000     0.451320000000     0.680020000000     0.0503667  
H205     H      0.779620000000     0.471950000000     0.664850000000     0.0520547  
H206     H      0.753110000000     0.426280000000     0.587390000000     0.0533711  
H207     H      0.637980000000     0.427320000000     0.666500000000     0.0533444  
H208     H      0.637790000000     0.426140000000     0.586710000000     0.0533796  
H209     H      0.779420000000     0.470820000000     0.588870000000     0.0520129  
H210     H      0.753340000000     0.427470000000     0.667200000000     0.0533663  
H211     H      0.514840000000     0.188410000000     0.588230000000     0.0534105  
H212     H      0.515010000000     0.189270000000     0.668040000000     0.0533825  
H213     H      0.491200000000     0.235060000000     0.680910000000     0.0503805  
H214     H      0.490950000000     0.233880000000     0.574290000000     0.0503426  
H215     H      0.514650000000     0.303470000000     0.587130000000     0.0534172  
H216     H      0.470320000000     0.286150000000     0.665010000000     0.0520776  
H217     H      0.470330000000     0.162000000000     0.590200000000     0.0520887  
H218     H      0.470480000000     0.162820000000     0.666170000000     0.0520798  
H219     H      0.514860000000     0.304350000000     0.666960000000     0.0534308  
H220     H      0.470120000000     0.285310000000     0.589060000000     0.0520778  
H221     H      0.521730000000     0.498930000000     0.558540000000     0.0525018  
H222     H      0.442990000000     0.420250000000     0.558260000000     0.0524918  
H223     H      0.415310000000     0.419190000000     0.500340000000     0.0506051  
H224     H      0.523080000000     0.526870000000     0.000720000000     0.0505673  
H225     H      0.478090000000     0.543090000000     0.967330000000     0.0534337  
H226     H      0.416620000000     0.447250000000     0.942480000000     0.0524286  
H227     H      0.539080000000     0.481670000000     0.534140000000     0.0533852  
H228     H      0.460370000000     0.403010000000     0.533850000000     0.0533939  
H229     H      0.399270000000     0.464350000000     0.967050000000     0.0534627  
H230     H      0.495280000000     0.525820000000     0.942760000000     0.0524081  
H231     H      0.415680000000     0.447910000000     0.808180000000     0.0525076  
H232     H      0.494720000000     0.526300000000     0.808540000000     0.0524931  
H233     H      0.522650000000     0.527450000000     0.750780000000     0.0505869  
H234     H      0.414470000000     0.420190000000     0.750280000000     0.0505814  
H235     H      0.459370000000     0.403740000000     0.717080000000     0.0534267  
H236     H      0.521470000000     0.499610000000     0.692840000000     0.0524276  
H237     H      0.398680000000     0.465500000000     0.783740000000     0.0534019  
H238     H      0.477680000000     0.543860000000     0.784100000000     0.0533867  
H239     H      0.538480000000     0.482180000000     0.717450000000     0.0534586  
H240     H      0.442510000000     0.421330000000     0.692470000000     0.0524126  
N1       N      0.442280000000     0.920150000000     0.309970000000    -0.151056   
N2       N      0.495990000000     0.027730000000     0.198570000000    -0.151059   
N3       N      0.442030000000     0.919290000000     0.448440000000    -0.151048   
N4       N      0.495670000000     0.026760000000     0.060090000000    -0.151034   
N5       N      0.159960000000     0.637140000000     0.378710000000    -0.151039   
N6       N      0.305630000000     0.782490000000     0.378980000000    -0.151036   
N7       N      0.777940000000     0.309910000000     0.128480000000    -0.15105    
N8       N      0.632330000000     0.164500000000     0.128980000000    -0.151042   
N9       N      0.022540000000     0.500530000000     0.309070000000    -0.151276   
N10      N      0.915020000000     0.446620000000     0.197360000000    -0.151099   
N11      N      0.915250000000     0.446490000000     0.058880000000    -0.151129   
N12      N      0.022920000000     0.500490000000     0.447550000000    -0.151267   
N13      N      0.441660000000     0.782600000000     0.377930000000    -0.151114   
N14      N      0.441800000000     0.637180000000     0.376590000000    -0.151072   
N15      N      0.305720000000     0.501490000000     0.376450000000    -0.151041   
N16      N      0.160090000000     0.501380000000     0.377510000000    -0.15098    
N17      N      0.777730000000     0.445610000000     0.127190000000    -0.151106   
N18      N      0.632070000000     0.445440000000     0.126330000000    -0.15102    
N19      N      0.496040000000     0.309700000000     0.126910000000    -0.151077   
N20      N      0.496250000000     0.164320000000     0.128280000000    -0.151053   
N21      N      0.442390000000     0.500100000000     0.444810000000    -0.151073   
N22      N      0.495900000000     0.446060000000     0.056400000000    -0.151055   
N23      N      0.495380000000     0.446740000000     0.194870000000    -0.151105   
N24      N      0.441830000000     0.500790000000     0.306330000000    -0.151089   
N25      N      0.442280000000     0.920150000000     0.809970000000    -0.151052   
N26      N      0.495980000000     0.027730000000     0.698570000000    -0.151055   
N27      N      0.442030000000     0.919290000000     0.948440000000    -0.15108    
N28      N      0.495670000000     0.026760000000     0.560090000000    -0.151035   
N29      N      0.159960000000     0.637140000000     0.878710000000    -0.15101    
N30      N      0.305630000000     0.782490000000     0.878980000000    -0.150998   
N31      N      0.777940000000     0.309910000000     0.628480000000    -0.15105    
N32      N      0.632330000000     0.164500000000     0.628980000000    -0.151042   
N33      N      0.022540000000     0.500530000000     0.809070000000    -0.151312   
N34      N      0.915020000000     0.446620000000     0.697360000000    -0.151099   
N35      N      0.915250000000     0.446490000000     0.558880000000    -0.151095   
N36      N      0.022920000000     0.500490000000     0.947550000000    -0.15127    
N37      N      0.441660000000     0.782600000000     0.877930000000    -0.15112    
N38      N      0.441800000000     0.637180000000     0.876590000000    -0.15111    
N39      N      0.305720000000     0.501490000000     0.876450000000    -0.151035   
N40      N      0.160090000000     0.501380000000     0.877510000000    -0.150987   
N41      N      0.777730000000     0.445620000000     0.627190000000    -0.15101    
N42      N      0.632070000000     0.445440000000     0.626330000000    -0.151038   
N43      N      0.496040000000     0.309700000000     0.626910000000    -0.15106    
N44      N      0.496250000000     0.164320000000     0.628280000000    -0.151051   
N45      N      0.442390000000     0.500100000000     0.944810000000    -0.151074   
N46      N      0.495900000000     0.446070000000     0.556400000000    -0.151023   
N47      N      0.495380000000     0.446740000000     0.694870000000    -0.151097   
N48      N      0.441830000000     0.500790000000     0.806330000000    -0.151088   
O1       O      0.510760000000     0.358770000000     0.149430000000    -0.24806    
O2       O      0.583200000000     0.430560000000     0.103290000000    -0.247964   
O3       O      0.534720000000     0.453530000000     0.162170000000    -0.247507   
O4       O      0.488590000000     0.406950000000     0.089540000000    -0.247526   
O5       O      0.534890000000     0.453260000000     0.089710000000    -0.247696   
O6       O      0.488220000000     0.407440000000     0.161950000000    -0.247673   
O7       O      0.510610000000     0.358260000000     0.103590000000    -0.247895   
O8       O      0.583290000000     0.431250000000     0.149130000000    -0.247822   
O9       O      0.403140000000     0.493230000000     0.411890000000    -0.247668   
O10      O      0.402770000000     0.493690000000     0.339430000000    -0.2477     
O11      O      0.427310000000     0.588250000000     0.399210000000    -0.247986   
O12      O      0.354410000000     0.516150000000     0.353300000000    -0.247854   
O13      O      0.354650000000     0.515830000000     0.399140000000    -0.248044   
O14      O      0.426930000000     0.588460000000     0.353370000000    -0.24796    
O15      O      0.449470000000     0.539490000000     0.412060000000    -0.247673   
O16      O      0.449240000000     0.539810000000     0.339640000000    -0.247708   
O17      O      0.882860000000     0.453610000000     0.164300000000    -0.247489   
O18      O      0.883110000000     0.407270000000     0.091800000000    -0.247612   
O19      O      0.812130000000     0.431480000000     0.150480000000    -0.247848   
O20      O      0.812080000000     0.358960000000     0.151140000000    -0.248148   
O21      O      0.812240000000     0.358470000000     0.105300000000    -0.247834   
O22      O      0.811940000000     0.430740000000     0.104640000000    -0.248019   
O23      O      0.883140000000     0.407450000000     0.164230000000    -0.247677   
O24      O      0.883130000000     0.453570000000     0.091840000000    -0.247768   
O25      O      0.054720000000     0.493480000000     0.342050000000    -0.24749    
O26      O      0.054810000000     0.539660000000     0.414510000000    -0.247616   
O27      O      0.125510000000     0.588520000000     0.355570000000    -0.24781    
O28      O      0.125740000000     0.516120000000     0.354960000000    -0.247988   
O29      O      0.125870000000     0.515710000000     0.400800000000    -0.247807   
O30      O      0.125940000000     0.588150000000     0.401410000000    -0.247944   
O31      O      0.054670000000     0.539760000000     0.342080000000    -0.247364   
O32      O      0.055020000000     0.493470000000     0.414510000000    -0.247515   
O33      O      0.488590000000     0.059030000000     0.092920000000    -0.247613   
O34      O      0.535100000000     0.059640000000     0.165500000000    -0.247697   
O35      O      0.510910000000     0.129950000000     0.105740000000    -0.247988   
O36      O      0.583490000000     0.130540000000     0.151930000000    -0.247931   
O37      O      0.583520000000     0.129990000000     0.106090000000    -0.247917   
O38      O      0.510960000000     0.130380000000     0.151580000000    -0.24791    
O39      O      0.534910000000     0.059040000000     0.093050000000    -0.247634   
O40      O      0.488710000000     0.059500000000     0.165350000000    -0.247632   
O41      O      0.402970000000     0.887500000000     0.415180000000    -0.247643   
O42      O      0.449440000000     0.888040000000     0.342910000000    -0.247693   
O43      O      0.354300000000     0.816940000000     0.355990000000    -0.247712   
O44      O      0.427250000000     0.816710000000     0.401290000000    -0.247919   
O45      O      0.426770000000     0.816850000000     0.355460000000    -0.248141   
O46      O      0.354620000000     0.816480000000     0.401830000000    -0.248067   
O47      O      0.449210000000     0.887340000000     0.415340000000    -0.247553   
O48      O      0.402970000000     0.887740000000     0.342730000000    -0.247559   
O49      O      0.510760000000     0.358770000000     0.649430000000    -0.248058   
O50      O      0.583200000000     0.430560000000     0.603290000000    -0.247967   
O51      O      0.534720000000     0.453530000000     0.662170000000    -0.247506   
O52      O      0.488590000000     0.406950000000     0.589540000000    -0.247512   
O53      O      0.534890000000     0.453260000000     0.589710000000    -0.24768    
O54      O      0.488220000000     0.407440000000     0.661950000000    -0.247673   
O55      O      0.510610000000     0.358260000000     0.603590000000    -0.247898   
O56      O      0.583290000000     0.431250000000     0.649130000000    -0.247823   
O57      O      0.403140000000     0.493230000000     0.911890000000    -0.24767    
O58      O      0.402770000000     0.493690000000     0.839430000000    -0.247701   
O59      O      0.427310000000     0.588250000000     0.899210000000    -0.248028   
O60      O      0.354410000000     0.516150000000     0.853300000000    -0.247852   
O61      O      0.354650000000     0.515830000000     0.899140000000    -0.248045   
O62      O      0.426930000000     0.588460000000     0.853380000000    -0.248096   
O63      O      0.449470000000     0.539490000000     0.912060000000    -0.247672   
O64      O      0.449240000000     0.539810000000     0.839640000000    -0.247706   
O65      O      0.882860000000     0.453610000000     0.664300000000    -0.247495   
O66      O      0.883110000000     0.407260000000     0.591800000000    -0.2475     
O67      O      0.812130000000     0.431490000000     0.650480000000    -0.24793    
O68      O      0.812080000000     0.358960000000     0.651140000000    -0.248146   
O69      O      0.812240000000     0.358470000000     0.605300000000    -0.247833   
O70      O      0.811940000000     0.430740000000     0.604640000000    -0.248084   
O71      O      0.883140000000     0.407450000000     0.664230000000    -0.247699   
O72      O      0.883130000000     0.453570000000     0.591840000000    -0.247733   
O73      O      0.054720000000     0.493480000000     0.842050000000    -0.247531   
O74      O      0.054810000000     0.539660000000     0.914510000000    -0.247612   
O75      O      0.125510000000     0.588520000000     0.855570000000    -0.247871   
O76      O      0.125740000000     0.516120000000     0.854960000000    -0.247988   
O77      O      0.125870000000     0.515710000000     0.900800000000    -0.247811   
O78      O      0.125940000000     0.588150000000     0.901410000000    -0.24801    
O79      O      0.054670000000     0.539750000000     0.842080000000    -0.247495   
O80      O      0.055020000000     0.493470000000     0.914510000000    -0.247515   
O81      O      0.488590000000     0.059030000000     0.592920000000    -0.247613   
O82      O      0.535100000000     0.059640000000     0.665500000000    -0.247701   
O83      O      0.510910000000     0.129950000000     0.605740000000    -0.247988   
O84      O      0.583490000000     0.130540000000     0.651930000000    -0.247932   
O85      O      0.583520000000     0.129990000000     0.606090000000    -0.247919   
O86      O      0.510960000000     0.130380000000     0.651580000000    -0.24791    
O87      O      0.534910000000     0.059040000000     0.593050000000    -0.247635   
O88      O      0.488710000000     0.059500000000     0.665350000000    -0.247628   
O89      O      0.402970000000     0.887500000000     0.915180000000    -0.247681   
O90      O      0.449440000000     0.888040000000     0.842910000000    -0.24769    
O91      O      0.354300000000     0.816950000000     0.855990000000    -0.247843   
O92      O      0.427250000000     0.816710000000     0.901290000000    -0.247928   
O93      O      0.426770000000     0.816850000000     0.855460000000    -0.248147   
O94      O      0.354620000000     0.816480000000     0.901830000000    -0.248037   
O95      O      0.449210000000     0.887350000000     0.915340000000    -0.247661   
O96      O      0.402970000000     0.887740000000     0.842730000000    -0.247545   


