data_structure

_audit_creation_method RASPA-1.0
_audit_creation_date 2023-5-23
_audit_author_name 'Poobodin Mano'

_cell_length_a    31.2269
_cell_length_b    30.4904
_cell_length_c    68.8536
_cell_angle_alpha 90
_cell_angle_beta  89.965
_cell_angle_gamma 89.9524
_cell_volume      65556.9

_symmetry_cell_setting          triclinic
_symmetry_space_group_name_Hall 'P 1'
_symmetry_space_group_name_H-M  'P 1'
_symmetry_Int_Tables_number     1

_symmetry_equiv_pos_as_xyz 'x,y,z'

loop_
_atom_site_label
_atom_site_type_symbol
_atom_site_fract_x
_atom_site_fract_y
_atom_site_fract_z
_atom_site_charge
C1       C      0.945990000000     0.441670000000     0.308750000000     0.340831   
C2       C      0.053490000000     0.345050000000     0.821010000000     0.343428   
C3       C      0.065860000000     0.486550000000     0.844860000000     0.340392   
C4       C      0.977510000000     0.392740000000     0.876920000000     0.346338   
C5       C      0.008850000000     0.407900000000     0.041300000000     0.348042   
C6       C      0.109350000000     0.321460000000     0.070510000000     0.340759   
C7       C      0.088220000000     0.458240000000     0.098060000000     0.346125   
C8       C      0.984290000000     0.359750000000     0.106970000000     0.339659   
C9       C      0.904910000000     0.522230000000     0.924050000000     0.342244   
C10      C      0.811520000000     0.640780000000     0.910570000000     0.342887   
C11      C      0.955540000000     0.643590000000     0.891090000000     0.344396   
C12      C      0.853670000000     0.548380000000     0.861140000000     0.347108   
C13      C      0.750310000000     0.605890000000     0.149950000000     0.340976   
C14      C      0.846030000000     0.526410000000     0.184980000000     0.344257   
C15      C      0.827690000000     0.519300000000     0.109320000000     0.343458   
C16      C      0.906030000000     0.616160000000     0.142180000000     0.342883   
C17      C      0.798300000000     0.185700000000     0.019700000000     0.342031   
C18      C      0.896880000000     0.294600000000     0.001980000000     0.339004   
C19      C      0.855730000000     0.269970000000     0.069350000000     0.34532    
C20      C      0.946280000000     0.174020000000     0.034800000000     0.344776   
C21      C      0.935040000000     0.172310000000     0.282080000000     0.344663   
C22      C      0.835930000000     0.275600000000     0.796590000000     0.339946   
C23      C      0.881380000000     0.254000000000     0.226140000000     0.346651   
C24      C      0.796690000000     0.154340000000     0.257390000000     0.34019    
C25      C      0.641190000000     0.444930000000     0.953010000000     0.342617   
C26      C      0.742540000000     0.366700000000     0.918890000000     0.34749    
C27      C      0.768860000000     0.411320000000     0.985360000000     0.335912   
C28      C      0.674070000000     0.300760000000     0.974000000000     0.345186   
C29      C      0.628710000000     0.469090000000     0.203950000000     0.343456   
C30      C      0.750680000000     0.373240000000     0.188390000000     0.341014   
C31      C      0.737640000000     0.435320000000     0.248140000000     0.340798   
C32      C      0.629960000000     0.332470000000     0.225360000000     0.343004   
C33      C      0.345170000000     0.750570000000     0.947060000000     0.346747   
C34      C      0.425680000000     0.648700000000     0.915850000000     0.340106   
C35      C      0.287970000000     0.670520000000     0.890750000000     0.345126   
C36      C      0.386390000000     0.777100000000     0.880810000000     0.338972   
C37      C      0.332040000000     0.793800000000     0.175420000000     0.339395   
C38      C      0.429040000000     0.682750000000     0.161380000000     0.343627   
C39      C      0.284560000000     0.671870000000     0.140850000000     0.34465    
C40      C      0.376170000000     0.766110000000     0.108810000000     0.345568   
C41      C      0.475780000000     0.875620000000     0.990340000000     0.339792   
C42      C      0.592620000000     0.979120000000     0.977350000000     0.342085   
C43      C      0.600850000000     0.845130000000     0.952090000000     0.342589   
C44      C      0.485680000000     0.937710000000     0.931900000000     0.339742   
C45      C      0.554200000000     0.809570000000     0.198650000000     0.346554   
C46      C      0.455080000000     0.912190000000     0.191140000000     0.336844   
C47      C      0.481550000000     0.861880000000     0.257660000000     0.346876   
C48      C      0.580090000000     0.946090000000     0.226750000000     0.340707   
C49      C      0.479810000000     0.094080000000     0.020390000000     0.341665   
C50      C      0.372740000000     0.021230000000     0.991730000000     0.342327   
C51      C      0.401230000000     0.016200000000     0.065960000000     0.342035   
C52      C      0.325470000000     0.117720000000     0.034150000000     0.344771   
C53      C      0.265790000000     0.142930000000     0.282420000000     0.343383   
C54      C      0.364620000000     0.045460000000     0.815170000000     0.348728   
C55      C      0.316160000000     0.019920000000     0.249430000000     0.342947   
C56      C      0.410780000000     0.135770000000     0.263510000000     0.343947   
C57      C      0.246410000000     0.892930000000     0.299500000000     0.346202   
C58      C      0.156000000000     0.984390000000     0.830400000000     0.341115   
C59      C      0.170910000000     0.843830000000     0.855230000000     0.344031   
C60      C      0.278830000000     0.937940000000     0.866620000000     0.340748   
C61      C      0.119240000000     0.817700000000     0.101520000000     0.340957   
C62      C      0.217680000000     0.904130000000     0.131540000000     0.348169   
C63      C      0.245160000000     0.856980000000     0.066080000000     0.339955   
C64      C      0.140450000000     0.955820000000     0.074680000000     0.346173   
C65      C      0.278690000000     0.918290000000     0.154090000000    -0.0295021  
C66      C      0.260060000000     0.978160000000     0.231970000000    -0.0281513  
C67      C      0.333140000000     0.976660000000     0.219810000000    -0.0293637  
C68      C      0.303310000000     0.957310000000     0.205460000000     0.0202964  
C69      C      0.261680000000     0.957960000000     0.212460000000     0.0180162  
C70      C      0.227040000000     0.945480000000     0.200840000000    -0.0656689  
C71      C      0.205710000000     0.919940000000     0.166440000000    -0.027014   
C72      C      0.312480000000     0.944210000000     0.186430000000    -0.068908   
C73      C      0.236370000000     0.932000000000     0.181880000000     0.0152945  
C74      C      0.277980000000     0.931220000000     0.174860000000     0.0208426  
C75      C      0.367690000000     0.962230000000     0.966080000000    -0.0286782  
C76      C      0.304630000000     0.994380000000     0.889500000000    -0.0282631  
C77      C      0.321990000000     0.918110000000     0.895970000000    -0.0290328  
C78      C      0.333780000000     0.946140000000     0.912880000000     0.0196787  
C79      C      0.323840000000     0.989560000000     0.908980000000     0.0185257  
C80      C      0.328230000000     0.022250000000     0.923010000000    -0.0676525  
C81      C      0.348580000000     0.037570000000     0.958440000000    -0.0277048  
C82      C      0.349170000000     0.933220000000     0.931250000000    -0.0649389  
C83      C      0.343430000000     0.009450000000     0.941210000000     0.0172548  
C84      C      0.353970000000     0.966290000000     0.945350000000     0.0193298  
C85      C      0.429750000000     0.974080000000     0.170890000000    -0.0291119  
C86      C      0.394010000000     0.954680000000     0.090210000000    -0.0284774  
C87      C      0.409760000000     0.028640000000     0.101170000000    -0.0277443  
C88      C      0.406540000000     0.998580000000     0.117890000000     0.0186079  
C89      C      0.397340000000     0.956310000000     0.111810000000     0.0205914  
C90      C      0.396770000000     0.921280000000     0.125060000000    -0.0671298  
C91      C      0.413850000000     0.899610000000     0.160650000000    -0.032202   
C92      C      0.415710000000     0.008270000000     0.137300000000    -0.0645512  
C93      C      0.405920000000     0.930990000000     0.144550000000     0.0207775  
C94      C      0.415000000000     0.973410000000     0.150470000000     0.0152285  
C95      C      0.386210000000     0.982070000000     0.835990000000    -0.029506   
C96      C      0.451470000000     0.997570000000     0.913050000000    -0.0283309  
C97      C      0.450110000000     0.923300000000     0.900180000000    -0.0281559  
C98      C      0.432160000000     0.954690000000     0.885900000000     0.017712   
C99      C      0.432860000000     0.996960000000     0.893310000000     0.0192237  
C100     C      0.418880000000     0.032830000000     0.882370000000    -0.0669804  
C101     C      0.387580000000     0.055990000000     0.849280000000    -0.0267797  
C102     C      0.417340000000     0.945960000000     0.867070000000    -0.0664448  
C103     C      0.404030000000     0.024110000000     0.863610000000     0.0163471  
C104     C      0.403120000000     0.981880000000     0.856140000000     0.0217729  
C105     C      0.349370000000     0.838730000000     0.204750000000    -0.0312275  
C106     C      0.229710000000     0.868090000000     0.266050000000    -0.0270151  
C107     C      0.303400000000     0.886220000000     0.274000000000    -0.0295662  
C108     C      0.299890000000     0.871740000000     0.253430000000     0.0216147  
C109     C      0.257780000000     0.861580000000     0.248970000000     0.0149474  
C110     C      0.246080000000     0.845840000000     0.230650000000    -0.0646452  
C111     C      0.275270000000     0.821340000000     0.197340000000    -0.0283509  
C112     C      0.332810000000     0.866100000000     0.239760000000    -0.0697053  
C113     C      0.278810000000     0.840660000000     0.216970000000     0.0169132  
C114     C      0.321060000000     0.850360000000     0.221340000000     0.0239965  
C115     C      0.442610000000     0.812580000000     0.007560000000    -0.0261088  
C116     C      0.381800000000     0.827950000000     0.085130000000    -0.0299432  
C117     C      0.395570000000     0.753470000000     0.074240000000    -0.0270057  
C118     C      0.400960000000     0.784850000000     0.058010000000     0.014719   
C119     C      0.392380000000     0.827260000000     0.064130000000     0.020889   
C120     C      0.397680000000     0.863160000000     0.051680000000    -0.069586   
C121     C      0.425830000000     0.886710000000     0.018010000000    -0.0321865  
C122     C      0.416060000000     0.776100000000     0.039240000000    -0.0633009  
C123     C      0.412300000000     0.854420000000     0.032860000000     0.0253895  
C124     C      0.421520000000     0.812080000000     0.026840000000     0.0158592  
C125     C      0.334540000000     0.739610000000     0.982420000000    -0.0272409  
C126     C      0.287420000000     0.872530000000     0.036280000000    -0.0289603  
C127     C      0.283620000000     0.797830000000     0.048460000000    -0.0288654  
C128     C      0.303140000000     0.798780000000     0.028860000000     0.0190763  
C129     C      0.305020000000     0.841340000000     0.021820000000     0.0187748  
C130     C      0.317130000000     0.850220000000     0.002600000000    -0.0612652  
C131     C      0.337660000000     0.814020000000     0.969800000000    -0.027269   
C132     C      0.313530000000     0.762820000000     0.017150000000    -0.0643749  
C133     C      0.327870000000     0.814230000000     0.990920000000     0.0152774  
C134     C      0.326170000000     0.771730000000     0.998060000000     0.0156793  
C135     C      0.370820000000     0.823040000000     0.851730000000    -0.0324619  
C136     C      0.496160000000     0.847140000000     0.292420000000    -0.0272516  
C137     C      0.422440000000     0.858320000000     0.282230000000    -0.0281622  
C138     C      0.424750000000     0.850680000000     0.303560000000     0.0189762  
C139     C      0.466900000000     0.844510000000     0.309270000000     0.0179368  
C140     C      0.476230000000     0.829950000000     0.827810000000    -0.0644381  
C141     C      0.444610000000     0.810930000000     0.861390000000    -0.0282083  
C142     C      0.390860000000     0.845980000000     0.316810000000    -0.0672907  
C143     C      0.442530000000     0.827340000000     0.841170000000     0.014253   
C144     C      0.400430000000     0.834370000000     0.835600000000     0.021092   
C145     C      0.599490000000     0.518130000000     0.178280000000    -0.0281213  
C146     C      0.465950000000     0.643840000000     0.188430000000    -0.0286076  
C147     C      0.496930000000     0.641390000000     0.156070000000    -0.028096   
C148     C      0.519910000000     0.611000000000     0.169300000000     0.0169344  
C149     C      0.502640000000     0.612920000000     0.187840000000     0.0165828  
C150     C      0.517590000000     0.585800000000     0.202810000000    -0.0669576  
C151     C      0.571070000000     0.523460000000     0.211060000000    -0.0277028  
C152     C      0.552410000000     0.581050000000     0.164590000000    -0.0668327  
C153     C      0.550580000000     0.556390000000     0.198190000000     0.0169366  
C154     C      0.567200000000     0.553750000000     0.179550000000     0.0155474  
C155     C      0.448890000000     0.177370000000     0.237580000000    -0.027678   
C156     C      0.600610000000     0.278200000000     0.248830000000    -0.0278218  
C157     C      0.569110000000     0.283500000000     0.216630000000    -0.0275881  
C158     C      0.545000000000     0.251850000000     0.228800000000     0.0179218  
C159     C      0.563120000000     0.248680000000     0.247120000000     0.0177532  
C160     C      0.544990000000     0.222330000000     0.261610000000    -0.0663496  
C161     C      0.481290000000     0.171150000000     0.269570000000    -0.0275176  
C162     C      0.507470000000     0.229130000000     0.224000000000    -0.0658431  
C163     C      0.507730000000     0.199270000000     0.256750000000     0.0177561  
C164     C      0.489370000000     0.202700000000     0.238480000000     0.0181968  
C165     C      0.618810000000     0.520370000000     0.943650000000    -0.0280755  
C166     C      0.447730000000     0.573890000000     0.926450000000    -0.0279613  
C167     C      0.502490000000     0.628780000000     0.920290000000    -0.0280847  
C168     C      0.521970000000     0.587860000000     0.927930000000     0.0184975  
C169     C      0.490740000000     0.556570000000     0.931470000000     0.0183129  
C170     C      0.501120000000     0.515110000000     0.938940000000    -0.0653259  
C171     C      0.564120000000     0.465550000000     0.950050000000    -0.0278917  
C172     C      0.565340000000     0.579400000000     0.931600000000    -0.0654309  
C173     C      0.544490000000     0.506680000000     0.942660000000     0.0182983  
C174     C      0.575710000000     0.537940000000     0.939060000000     0.0184888  
C175     C      0.537960000000     0.146800000000     0.028190000000    -0.0293545  
C176     C      0.645820000000     0.224400000000     0.971130000000    -0.0258594  
C177     C      0.644530000000     0.260890000000     0.002480000000    -0.0284728  
C178     C      0.620800000000     0.218910000000     0.003380000000     0.0223687  
C179     C      0.621330000000     0.198030000000     0.985490000000     0.0136957  
C180     C      0.596510000000     0.160470000000     0.982050000000    -0.0622541  
C181     C      0.539200000000     0.109090000000     0.997120000000    -0.02988    
C182     C      0.595540000000     0.203530000000     0.018730000000    -0.0677141  
C183     C      0.571850000000     0.144520000000     0.997560000000     0.0158123  
C184     C      0.571260000000     0.165720000000     0.015370000000     0.0212287  
C185     C      0.081240000000     0.017000000000     0.332060000000    -0.028432   
C186     C      0.010610000000     0.152100000000     0.788250000000    -0.0271432  
C187     C      0.961720000000     0.117840000000     0.306060000000    -0.0281058  
C188     C      0.005420000000     0.100420000000     0.309330000000     0.0187555  
C189     C      0.033470000000     0.119320000000     0.800420000000     0.0167954  
C190     C      0.076790000000     0.107230000000     0.799600000000    -0.0667524  
C191     C      0.133230000000     0.052750000000     0.813330000000    -0.0278542  
C192     C      0.017590000000     0.065910000000     0.321570000000    -0.0663522  
C193     C      0.090180000000     0.073310000000     0.811980000000     0.0158566  
C194     C      0.060870000000     0.053840000000     0.321460000000     0.0189785  
C195     C      0.719760000000     0.135780000000     0.251910000000    -0.0278037  
C196     C      0.656370000000     0.965670000000     0.232490000000    -0.0279819  
C197     C      0.602350000000     0.023050000000     0.233930000000    -0.02779    
C198     C      0.645390000000     0.041110000000     0.238430000000     0.0178522  
C199     C      0.676110000000     0.008310000000     0.237620000000     0.0187731  
C200     C      0.719340000000     0.016940000000     0.241440000000    -0.0658893  
C201     C      0.773300000000     0.077910000000     0.250560000000    -0.0280973  
C202     C      0.656290000000     0.084500000000     0.243070000000    -0.0650236  
C203     C      0.730220000000     0.060230000000     0.246100000000     0.0188582  
C204     C      0.699610000000     0.093150000000     0.246880000000     0.0177465  
C205     C      0.853240000000     0.320670000000     0.825680000000    -0.0325685  
C206     C      0.728480000000     0.356110000000     0.883830000000    -0.0269109  
C207     C      0.802310000000     0.362250000000     0.894660000000    -0.0280379  
C208     C      0.800380000000     0.354470000000     0.873340000000     0.019353   
C209     C      0.758180000000     0.350810000000     0.867280000000     0.0176659  
C210     C      0.747660000000     0.338880000000     0.848260000000    -0.0647827  
C211     C      0.779120000000     0.312960000000     0.815600000000    -0.0278044  
C212     C      0.834440000000     0.346840000000     0.860460000000    -0.0671395  
C213     C      0.781630000000     0.331370000000     0.835450000000     0.0137569  
C214     C      0.823890000000     0.335490000000     0.841320000000     0.0211992  
C215     C      0.981530000000     0.102150000000     0.028380000000    -0.0280532  
C216     C      0.123320000000     0.035450000000     0.071430000000    -0.0269726  
C217     C      0.087940000000     0.982870000000     0.050330000000    -0.0278512  
C218     C      0.069520000000     0.027250000000     0.047640000000     0.0192502  
C219     C      0.089690000000     0.057330000000     0.059650000000     0.0165146  
C220     C      0.075530000000     0.100880000000     0.060930000000    -0.0656158  
C221     C      0.016940000000     0.155070000000     0.049310000000    -0.0276411  
C222     C      0.034070000000     0.038970000000     0.036300000000    -0.0660285  
C223     C      0.040350000000     0.112730000000     0.049410000000     0.0170821  
C224     C      0.020160000000     0.082570000000     0.037450000000     0.0190791  
C225     C      0.628970000000     0.019720000000     0.004160000000    -0.0290538  
C226     C      0.748520000000     0.159230000000     0.993950000000    -0.0292282  
C227     C      0.736860000000     0.136610000000     0.027370000000    -0.0285575  
C228     C      0.707510000000     0.112810000000     0.014130000000     0.0207676  
C229     C      0.714070000000     0.125810000000     0.995060000000     0.0158494  
C230     C      0.692620000000     0.105490000000     0.979620000000    -0.0643997  
C231     C      0.639280000000     0.043620000000     0.970800000000    -0.0270114  
C232     C      0.679400000000     0.078550000000     0.018790000000    -0.0669609  
C233     C      0.664140000000     0.071590000000     0.984320000000     0.0137361  
C234     C      0.657880000000     0.058310000000     0.003360000000     0.0210404  
C235     C      0.798230000000     0.387790000000     0.160120000000    -0.0320569  
C236     C      0.836990000000     0.256910000000     0.103840000000    -0.027331   
C237     C      0.847060000000     0.331990000000     0.092910000000    -0.0296779  
C238     C      0.835550000000     0.330830000000     0.113840000000     0.0204227  
C239     C      0.829330000000     0.287990000000     0.119950000000     0.0155154  
C240     C      0.814400000000     0.278250000000     0.138620000000    -0.0638506  
C241     C      0.785740000000     0.312600000000     0.170320000000    -0.028457   
C242     C      0.827720000000     0.366350000000     0.126280000000    -0.0694463  
C243     C      0.806580000000     0.313720000000     0.151010000000     0.0166234  
C244     C      0.813330000000     0.356600000000     0.145070000000     0.0249359  
C245     C      0.601780000000     0.785510000000     0.171900000000    -0.0281498  
C246     C      0.677640000000     0.616270000000     0.164620000000    -0.0273318  
C247     C      0.707880000000     0.673420000000     0.144290000000    -0.0288439  
C248     C      0.669460000000     0.689730000000     0.154580000000     0.0195003  
C249     C      0.652440000000     0.657510000000     0.166500000000     0.0164715  
C250     C      0.619280000000     0.667050000000     0.179660000000    -0.0647455  
C251     C      0.571750000000     0.730170000000     0.193330000000    -0.0270255  
C252     C      0.654030000000     0.732770000000     0.154860000000    -0.0665085  
C253     C      0.603440000000     0.710190000000     0.179780000000     0.0170971  
C254     C      0.620370000000     0.741990000000     0.167610000000     0.0198345  
C255     C      0.981980000000     0.629830000000     0.132060000000    -0.0274323  
C256     C      0.046730000000     0.799700000000     0.113540000000    -0.0287636  
C257     C      0.096060000000     0.739880000000     0.106740000000    -0.0264261  
C258     C      0.055490000000     0.722880000000     0.115250000000     0.0153946  
C259     C      0.027790000000     0.757270000000     0.119260000000     0.0206956  
C260     C      0.987620000000     0.750330000000     0.127640000000    -0.067242   
C261     C      0.935340000000     0.691250000000     0.139810000000    -0.0286544  
C262     C      0.043870000000     0.679190000000     0.119090000000    -0.0634175  
C263     C      0.976300000000     0.706970000000     0.131680000000     0.020371   
C264     C      0.003300000000     0.672190000000     0.127380000000     0.0164446  
C265     C      0.795150000000     0.473570000000     0.005080000000    -0.0270351  
C266     C      0.834600000000     0.456910000000     0.085500000000    -0.0282855  
C267     C      0.819400000000     0.530660000000     0.074040000000    -0.0274465  
C268     C      0.821510000000     0.499840000000     0.057560000000     0.0186183  
C269     C      0.830390000000     0.457660000000     0.063910000000     0.0209729  
C270     C      0.829900000000     0.422080000000     0.050950000000    -0.0667957  
C271     C      0.811390000000     0.399350000000     0.015580000000    -0.032084   
C272     C      0.811440000000     0.508860000000     0.038190000000    -0.0641407  
C273     C      0.820070000000     0.431170000000     0.031450000000     0.0214195  
C274     C      0.811080000000     0.473470000000     0.025310000000     0.0149348  
C275     C      0.658520000000     0.791180000000     0.959780000000    -0.027384   
C276     C      0.747630000000     0.687060000000     0.903950000000    -0.0277091  
C277     C      0.771880000000     0.678350000000     0.937280000000    -0.0276302  
C278     C      0.735340000000     0.709420000000     0.936290000000     0.0177621  
C279     C      0.721680000000     0.714460000000     0.917260000000     0.0181648  
C280     C      0.688720000000     0.743570000000     0.912380000000    -0.0662295  
C281     C      0.635550000000     0.800530000000     0.926290000000    -0.0280066  
C282     C      0.716440000000     0.732990000000     0.951540000000    -0.0655184  
C283     C      0.669880000000     0.767130000000     0.927600000000     0.0185116  
C284     C      0.683180000000     0.761890000000     0.946670000000     0.0176063  
C285     C      0.117710000000     0.818800000000     0.879580000000    -0.0282095  
C286     C      0.025370000000     0.658260000000     0.875040000000    -0.0265971  
C287     C      0.997460000000     0.711260000000     0.898160000000    -0.027696   
C288     C      0.037800000000     0.727340000000     0.889300000000     0.0188829  
C289     C      0.053590000000     0.697210000000     0.876010000000     0.0155492  
C290     C      0.089700000000     0.706320000000     0.864600000000    -0.0667187  
C291     C      0.145510000000     0.766270000000     0.856190000000    -0.0274924  
C292     C      0.057350000000     0.768170000000     0.891970000000    -0.0661262  
C293     C      0.109550000000     0.747000000000     0.867430000000     0.0173524  
C294     C      0.093780000000     0.777030000000     0.880770000000     0.0192336  
C295     C      0.828250000000     0.556380000000     0.827240000000    -0.0267244  
C296     C      0.774220000000     0.424400000000     0.279900000000    -0.0277364  
C297     C      0.769210000000     0.497780000000     0.266260000000    -0.0280968  
C298     C      0.789790000000     0.498930000000     0.285590000000     0.0191672  
C299     C      0.792700000000     0.457140000000     0.293430000000     0.0175421  
C300     C      0.804790000000     0.444100000000     0.810410000000    -0.0667336  
C301     C      0.834140000000     0.483200000000     0.841070000000    -0.0297011  
C302     C      0.803760000000     0.535840000000     0.295800000000    -0.0670065  
C303     C      0.816830000000     0.481250000000     0.821020000000     0.0218286  
C304     C      0.813120000000     0.523040000000     0.813260000000     0.0157901  
C305     C      0.248870000000     0.599760000000     0.145750000000    -0.0279484  
C306     C      0.106760000000     0.537500000000     0.101700000000    -0.0266697  
C307     C      0.140760000000     0.483620000000     0.122660000000    -0.0280299  
C308     C      0.160020000000     0.527470000000     0.125610000000     0.0194257  
C309     C      0.140650000000     0.558320000000     0.113690000000     0.0161211  
C310     C      0.155630000000     0.601620000000     0.112750000000    -0.0654736  
C311     C      0.214800000000     0.654280000000     0.125120000000    -0.0277837  
C312     C      0.195460000000     0.538030000000     0.137140000000    -0.0662632  
C313     C      0.190810000000     0.612320000000     0.124490000000     0.0171661  
C314     C      0.210220000000     0.581320000000     0.136310000000     0.0191038  
C315     C      0.183270000000     0.303490000000     0.060080000000    -0.0285781  
C316     C      0.249400000000     0.133240000000     0.043120000000    -0.0273113  
C317     C      0.298430000000     0.193890000000     0.037620000000    -0.0281754  
C318     C      0.256360000000     0.210200000000     0.044420000000     0.0198606  
C319     C      0.228180000000     0.175770000000     0.047470000000     0.0168359  
C320     C      0.186340000000     0.183090000000     0.054230000000    -0.0639092  
C321     C      0.132700000000     0.243880000000     0.064960000000    -0.0265477  
C322     C      0.244670000000     0.253670000000     0.048160000000    -0.0667488  
C323     C      0.174490000000     0.226780000000     0.057840000000     0.0158384  
C324     C      0.203070000000     0.260960000000     0.054980000000     0.0202083  
C325     C      0.947950000000     0.300200000000     0.125160000000    -0.0293138  
C326     C      0.890700000000     0.317210000000     0.203370000000    -0.0282883  
C327     C      0.895340000000     0.242620000000     0.191050000000    -0.0278397  
C328     C      0.904480000000     0.274560000000     0.175440000000     0.0171241  
C329     C      0.901740000000     0.317180000000     0.182380000000     0.0175485  
C330     C      0.912090000000     0.353130000000     0.170580000000    -0.065183   
C331     C      0.941960000000     0.375170000000     0.136830000000    -0.0293758  
C332     C      0.918080000000     0.265430000000     0.156510000000    -0.0660118  
C333     C      0.925160000000     0.343990000000     0.151500000000     0.0199837  
C334     C      0.928270000000     0.301280000000     0.144720000000     0.0190008  
C335     C      0.946820000000     0.421000000000     0.019150000000    -0.0278587  
C336     C      0.961990000000     0.481180000000     0.941160000000    -0.0284099  
C337     C      0.889250000000     0.478180000000     0.953660000000    -0.0294077  
C338     C      0.919830000000     0.459380000000     0.967870000000     0.0200022  
C339     C      0.961270000000     0.460980000000     0.960670000000     0.0181645  
C340     C      0.996490000000     0.449390000000     0.972120000000    -0.0653061  
C341     C      0.019390000000     0.424610000000     0.006400000000    -0.0257799  
C342     C      0.911450000000     0.445940000000     0.986950000000    -0.0680583  
C343     C      0.987990000000     0.435750000000     0.991120000000     0.0143577  
C344     C      0.946600000000     0.433890000000     0.998360000000     0.0190186  
C345     C      0.139000000000     0.517820000000     0.841060000000    -0.0282931  
C346     C      0.209750000000     0.654030000000     0.888020000000    -0.0271753  
C347     C      0.259990000000     0.617500000000     0.866430000000    -0.0280346  
C348     C      0.216040000000     0.600520000000     0.863400000000     0.0186082  
C349     C      0.187280000000     0.621340000000     0.875660000000     0.0167897  
C350     C      0.143960000000     0.609230000000     0.876200000000    -0.0666578  
C351     C      0.087870000000     0.555180000000     0.861880000000    -0.0280475  
C352     C      0.203240000000     0.566320000000     0.851120000000    -0.0662031  
C353     C      0.130930000000     0.575570000000     0.863610000000     0.0157575  
C354     C      0.159910000000     0.554510000000     0.851530000000     0.0188322  
C355     C      0.077760000000     0.267000000000     0.819560000000    -0.0275207  
C356     C      0.226550000000     0.212700000000     0.276190000000    -0.0278522  
C357     C      0.195670000000     0.158710000000     0.298050000000    -0.026611   
C358     C      0.168770000000     0.198740000000     0.297460000000     0.0156367  
C359     C      0.186340000000     0.229490000000     0.284940000000     0.0191296  
C360     C      0.168470000000     0.271330000000     0.282880000000    -0.0661113  
C361     C      0.109280000000     0.320680000000     0.797720000000    -0.0282642  
C362     C      0.132360000000     0.205800000000     0.810930000000    -0.0665451  
C363     C      0.132120000000     0.278290000000     0.796240000000     0.0194027  
C364     C      0.114220000000     0.247560000000     0.808660000000     0.0173282  
C365     C      0.921520000000     0.385350000000     0.902800000000    -0.0296096  
C366     C      0.952690000000     0.322010000000     0.979490000000    -0.0283662  
C367     C      0.878070000000     0.337560000000     0.972270000000    -0.0312147  
C368     C      0.905820000000     0.349600000000     0.955560000000     0.0239077  
C369     C      0.948370000000     0.340970000000     0.959810000000     0.0166742  
C370     C      0.980740000000     0.346900000000     0.945990000000    -0.0643553  
C371     C      0.995840000000     0.369290000000     0.910450000000    -0.0270096  
C372     C      0.893350000000     0.364900000000     0.937180000000    -0.0696713  
C373     C      0.968310000000     0.362270000000     0.927690000000     0.0148102  
C374     C      0.925870000000     0.371290000000     0.923380000000     0.0210928  
C375     C      0.902190000000     0.421910000000     0.279640000000    -0.0288417  
C376     C      0.865400000000     0.543250000000     0.218900000000    -0.0275393  
C377     C      0.850970000000     0.467250000000     0.210530000000    -0.0291882  
C378     C      0.864830000000     0.471080000000     0.231250000000     0.0203452  
C379     C      0.873070000000     0.514550000000     0.235780000000     0.0168876  
C380     C      0.889260000000     0.527090000000     0.253860000000    -0.0672364  
C381     C      0.917520000000     0.498410000000     0.286550000000    -0.0282461  
C382     C      0.872200000000     0.437570000000     0.244910000000    -0.0651167  
C383     C      0.896580000000     0.493860000000     0.267410000000     0.0182953  
C384     C      0.888140000000     0.450270000000     0.263200000000     0.0201115  
C385     C      0.943180000000     0.437490000000     0.809090000000     0.340325   
C386     C      0.054970000000     0.347710000000     0.319570000000     0.343753   
C387     C      0.069020000000     0.487740000000     0.345530000000     0.340648   
C388     C      0.979600000000     0.391750000000     0.375760000000     0.346399   
C389     C      0.980280000000     0.414190000000     0.549010000000     0.344311   
C390     C      0.096090000000     0.325570000000     0.567170000000     0.342258   
C391     C      0.088720000000     0.454810000000     0.597010000000     0.345188   
C392     C      0.978980000000     0.358420000000     0.611490000000     0.340263   
C393     C      0.890410000000     0.546970000000     0.432980000000     0.342229   
C394     C      0.805130000000     0.648790000000     0.402270000000     0.343467   
C395     C      0.961310000000     0.643830000000     0.395380000000     0.342985   
C396     C      0.860700000000     0.554770000000     0.362130000000     0.344621   
C397     C      0.750230000000     0.599810000000     0.650050000000     0.340484   
C398     C      0.844610000000     0.519180000000     0.684700000000     0.344169   
C399     C      0.824130000000     0.511220000000     0.608860000000     0.343165   
C400     C      0.905290000000     0.607860000000     0.640880000000     0.342264   
C401     C      0.807800000000     0.167830000000     0.520080000000     0.340112   
C402     C      0.901270000000     0.279980000000     0.499320000000     0.336565   
C403     C      0.859990000000     0.260240000000     0.568060000000     0.346409   
C404     C      0.955260000000     0.167590000000     0.533670000000     0.344808   
C405     C      0.932300000000     0.168390000000     0.785930000000     0.344901   
C406     C      0.839050000000     0.279990000000     0.292910000000     0.339718   
C407     C      0.876370000000     0.248350000000     0.730290000000     0.347592   
C408     C      0.793110000000     0.148060000000     0.762020000000     0.340597   
C409     C      0.646890000000     0.442750000000     0.448800000000     0.341932   
C410     C      0.745580000000     0.358840000000     0.417220000000     0.346739   
C411     C      0.772920000000     0.407540000000     0.483420000000     0.338712   
C412     C      0.672060000000     0.303910000000     0.474920000000     0.346304   
C413     C      0.628460000000     0.461010000000     0.701810000000     0.343853   
C414     C      0.750640000000     0.365570000000     0.686000000000     0.341056   
C415     C      0.736580000000     0.428400000000     0.745850000000     0.340493   
C416     C      0.630210000000     0.324380000000     0.723150000000     0.342702   
C417     C      0.349480000000     0.749630000000     0.447970000000     0.347108   
C418     C      0.431350000000     0.650040000000     0.415340000000     0.34045    
C419     C      0.292220000000     0.670530000000     0.391860000000     0.345224   
C420     C      0.388950000000     0.778200000000     0.381390000000     0.339537   
C421     C      0.333160000000     0.789010000000     0.675680000000     0.339646   
C422     C      0.431470000000     0.678900000000     0.661300000000     0.343917   
C423     C      0.287890000000     0.667410000000     0.640110000000     0.3447     
C424     C      0.379240000000     0.763970000000     0.609400000000     0.345828   
C425     C      0.474590000000     0.876120000000     0.490100000000     0.338609   
C426     C      0.590640000000     0.971790000000     0.477980000000     0.344094   
C427     C      0.592550000000     0.846530000000     0.445270000000     0.343276   
C428     C      0.478720000000     0.936260000000     0.430130000000     0.342313   
C429     C      0.553540000000     0.805220000000     0.698000000000     0.346006   
C430     C      0.454520000000     0.909440000000     0.690450000000     0.336565   
C431     C      0.480200000000     0.856690000000     0.756910000000     0.346945   
C432     C      0.578680000000     0.941380000000     0.726840000000     0.340684   
C433     C      0.471060000000     0.104410000000     0.523920000000     0.341391   
C434     C      0.366760000000     0.027790000000     0.492730000000     0.343356   
C435     C      0.392800000000     0.022700000000     0.567340000000     0.341877   
C436     C      0.315370000000     0.122720000000     0.534460000000     0.343852   
C437     C      0.266040000000     0.140350000000     0.784890000000     0.343138   
C438     C      0.362810000000     0.047570000000     0.313280000000     0.349082   
C439     C      0.315630000000     0.017270000000     0.751150000000     0.34314    
C440     C      0.410100000000     0.132060000000     0.764340000000     0.343702   
C441     C      0.246650000000     0.891320000000     0.799160000000     0.346317   
C442     C      0.154890000000     0.986320000000     0.329430000000     0.340966   
C443     C      0.170230000000     0.845650000000     0.355610000000     0.344054   
C444     C      0.275790000000     0.941690000000     0.367240000000     0.341172   
C445     C      0.121470000000     0.808840000000     0.602430000000     0.341101   
C446     C      0.219270000000     0.895830000000     0.633630000000     0.348088   
C447     C      0.248290000000     0.850420000000     0.567890000000     0.340041   
C448     C      0.143780000000     0.948250000000     0.576840000000     0.346373   
C449     C      0.279750000000     0.911820000000     0.656220000000    -0.0297165  
C450     C      0.259550000000     0.975900000000     0.733420000000    -0.0281642  
C451     C      0.332770000000     0.974530000000     0.721410000000    -0.0294312  
C452     C      0.303210000000     0.954540000000     0.707120000000     0.0205077  
C453     C      0.261510000000     0.955100000000     0.714020000000     0.0178895  
C454     C      0.227160000000     0.941400000000     0.702480000000    -0.0653349  
C455     C      0.206600000000     0.913150000000     0.668370000000    -0.0271717  
C456     C      0.312780000000     0.940380000000     0.688280000000    -0.0690881  
C457     C      0.236890000000     0.926860000000     0.683700000000     0.015229   
C458     C      0.278570000000     0.926240000000     0.676780000000     0.0209298  
C459     C      0.361870000000     0.968280000000     0.467280000000    -0.0287494  
C460     C      0.299230000000     0.998690000000     0.390420000000    -0.0278714  
C461     C      0.317600000000     0.922760000000     0.397100000000    -0.028744   
C462     C      0.328370000000     0.951060000000     0.414070000000     0.0196924  
C463     C      0.317850000000     0.994280000000     0.410050000000     0.0178546  
C464     C      0.321760000000     0.027210000000     0.424020000000    -0.0677216  
C465     C      0.342350000000     0.043370000000     0.459390000000    -0.0276285  
C466     C      0.343700000000     0.938550000000     0.432510000000    -0.0647006  
C467     C      0.336970000000     0.014830000000     0.442280000000     0.0172664  
C468     C      0.347860000000     0.971820000000     0.446570000000     0.0191932  
C469     C      0.428440000000     0.972660000000     0.671150000000    -0.0290323  
C470     C      0.387400000000     0.959570000000     0.590790000000    -0.0283542  
C471     C      0.401900000000     0.033000000000     0.602730000000    -0.0275597  
C472     C      0.400570000000     0.001450000000     0.619010000000     0.0184044  
C473     C      0.391840000000     0.959510000000     0.612340000000     0.0205172  
C474     C      0.392850000000     0.923340000000     0.624970000000    -0.0665599  
C475     C      0.412740000000     0.898860000000     0.659930000000    -0.0316886  
C476     C      0.411150000000     0.009570000000     0.638420000000    -0.0645114  
C477     C      0.403280000000     0.931490000000     0.644470000000     0.0201461  
C478     C      0.412180000000     0.973520000000     0.650970000000     0.0153698  
C479     C      0.383730000000     0.983570000000     0.333790000000    -0.0296176  
C480     C      0.442860000000     0.996030000000     0.411910000000    -0.0286553  
C481     C      0.445110000000     0.922770000000     0.397970000000    -0.0281429  
C482     C      0.426610000000     0.954430000000     0.383990000000     0.0177854  
C483     C      0.425320000000     0.996150000000     0.391970000000     0.0195171  
C484     C      0.410890000000     0.032260000000     0.381310000000    -0.0669811  
C485     C      0.381570000000     0.056590000000     0.348000000000    -0.0264884  
C486     C      0.413340000000     0.946490000000     0.364880000000    -0.0667435  
C487     C      0.397470000000     0.024270000000     0.362270000000     0.0168495  
C488     C      0.398540000000     0.982570000000     0.354250000000     0.0227493  
C489     C      0.349800000000     0.834660000000     0.704830000000    -0.0311314  
C490     C      0.229750000000     0.865530000000     0.765830000000    -0.0269218  
C491     C      0.303250000000     0.884940000000     0.773530000000    -0.0296331  
C492     C      0.299830000000     0.869470000000     0.753120000000     0.0215933  
C493     C      0.257840000000     0.858570000000     0.748780000000     0.0148088  
C494     C      0.246350000000     0.841640000000     0.730640000000    -0.0643237  
C495     C      0.275950000000     0.815780000000     0.697580000000    -0.0283436  
C496     C      0.332820000000     0.863510000000     0.739520000000    -0.0701045  
C497     C      0.279180000000     0.836150000000     0.717010000000     0.0167212  
C498     C      0.321280000000     0.846680000000     0.721290000000     0.024426   
C499     C      0.444240000000     0.813060000000     0.508200000000    -0.0285577  
C500     C      0.385350000000     0.826690000000     0.586170000000    -0.0295916  
C501     C      0.399480000000     0.752560000000     0.574890000000    -0.0271841  
C502     C      0.404730000000     0.784400000000     0.558840000000     0.0153496  
C503     C      0.396080000000     0.826640000000     0.565180000000     0.0203331  
C504     C      0.401020000000     0.862830000000     0.552850000000    -0.0685685  
C505     C      0.427940000000     0.887080000000     0.519010000000    -0.0312897  
C506     C      0.419270000000     0.776070000000     0.539970000000    -0.0642483  
C507     C      0.415260000000     0.854530000000     0.533930000000     0.0235317  
C508     C      0.424300000000     0.812300000000     0.527700000000     0.0171351  
C509     C      0.338930000000     0.737360000000     0.483270000000    -0.0276945  
C510     C      0.289870000000     0.867660000000     0.538070000000    -0.0292798  
C511     C      0.287440000000     0.792520000000     0.549770000000    -0.0288834  
C512     C      0.306590000000     0.794440000000     0.530100000000     0.0188868  
C513     C      0.307710000000     0.837270000000     0.523330000000     0.0196405  
C514     C      0.319490000000     0.846990000000     0.504150000000    -0.0651204  
C515     C      0.340470000000     0.812190000000     0.471090000000    -0.0282091  
C516     C      0.317500000000     0.759070000000     0.518150000000    -0.0660272  
C517     C      0.330620000000     0.811560000000     0.492200000000     0.017669   
C518     C      0.329770000000     0.768810000000     0.499080000000     0.0167835  
C519     C      0.372210000000     0.823080000000     0.352110000000    -0.0322281  
C520     C      0.494750000000     0.841560000000     0.791660000000    -0.0271127  
C521     C      0.421260000000     0.854620000000     0.781590000000    -0.0282686  
C522     C      0.423640000000     0.847740000000     0.802970000000     0.0195582  
C523     C      0.465650000000     0.840440000000     0.808620000000     0.0177028  
C524     C      0.477580000000     0.833660000000     0.328400000000    -0.0648813  
C525     C      0.446280000000     0.813010000000     0.361820000000    -0.0282067  
C526     C      0.389800000000     0.844620000000     0.816330000000    -0.0673067  
C527     C      0.443830000000     0.829450000000     0.341630000000     0.014413   
C528     C      0.401590000000     0.835260000000     0.336020000000     0.0204479  
C529     C      0.599640000000     0.511360000000     0.676540000000    -0.0281149  
C530     C      0.468000000000     0.638510000000     0.688010000000    -0.0285717  
C531     C      0.499210000000     0.637580000000     0.655680000000    -0.028207   
C532     C      0.521620000000     0.606050000000     0.668570000000     0.0168603  
C533     C      0.504240000000     0.607120000000     0.687100000000     0.0164846  
C534     C      0.518630000000     0.578850000000     0.701750000000    -0.067004   
C535     C      0.571030000000     0.515220000000     0.709320000000    -0.027598   
C536     C      0.553670000000     0.575860000000     0.663540000000    -0.0669598  
C537     C      0.551170000000     0.549200000000     0.696810000000     0.0169886  
C538     C      0.567900000000     0.547410000000     0.678170000000     0.0156512  
C539     C      0.446240000000     0.174270000000     0.738020000000    -0.0276189  
C540     C      0.602630000000     0.268810000000     0.746480000000    -0.027877   
C541     C      0.567390000000     0.277340000000     0.715230000000    -0.0276588  
C542     C      0.543790000000     0.245670000000     0.727600000000     0.0180147  
C543     C      0.564050000000     0.240650000000     0.745380000000     0.0177638  
C544     C      0.546800000000     0.214060000000     0.760000000000    -0.066481   
C545     C      0.482330000000     0.164790000000     0.769020000000    -0.0273997  
C546     C      0.504910000000     0.224680000000     0.723530000000    -0.0657123  
C547     C      0.508180000000     0.192710000000     0.755860000000     0.0176839  
C548     C      0.487690000000     0.198000000000     0.738150000000     0.0182348  
C549     C      0.625210000000     0.519020000000     0.439990000000    -0.0274325  
C550     C      0.454160000000     0.574120000000     0.423580000000    -0.0282616  
C551     C      0.508440000000     0.630540000000     0.419630000000    -0.027454   
C552     C      0.528270000000     0.588510000000     0.425830000000     0.0170173  
C553     C      0.497240000000     0.556430000000     0.428120000000     0.0192705  
C554     C      0.507710000000     0.513950000000     0.434240000000    -0.0661538  
C555     C      0.570420000000     0.463250000000     0.444270000000    -0.0281321  
C556     C      0.571670000000     0.579730000000     0.429430000000    -0.0644278  
C557     C      0.551010000000     0.505210000000     0.437880000000     0.019224   
C558     C      0.582170000000     0.537120000000     0.435480000000     0.0169775  
C559     C      0.521670000000     0.165410000000     0.530430000000    -0.028796   
C560     C      0.645430000000     0.226620000000     0.475960000000    -0.0262928  
C561     C      0.630350000000     0.275630000000     0.502950000000    -0.0286546  
C562     C      0.607710000000     0.233390000000     0.505530000000     0.0203376  
C563     C      0.616140000000     0.205340000000     0.490160000000     0.0152322  
C564     C      0.595100000000     0.164860000000     0.488450000000    -0.0638413  
C565     C      0.537470000000     0.114620000000     0.504210000000    -0.0286711  
C566     C      0.577860000000     0.222720000000     0.519940000000    -0.0662904  
C567     C      0.566160000000     0.153500000000     0.503230000000     0.0174096  
C568     C      0.557510000000     0.181980000000     0.518420000000     0.0197677  
C569     C      0.082650000000     0.014980000000     0.834300000000    -0.0281481  
C570     C      0.012980000000     0.154590000000     0.285030000000    -0.0270422  
C571     C      0.961010000000     0.115240000000     0.810020000000    -0.0278837  
C572     C      0.005070000000     0.098300000000     0.812780000000     0.0186173  
C573     C      0.034740000000     0.121360000000     0.297390000000     0.0164935  
C574     C      0.078030000000     0.109000000000     0.297170000000    -0.0665966  
C575     C      0.133380000000     0.054430000000     0.311790000000    -0.0280357  
C576     C      0.018230000000     0.063870000000     0.824850000000    -0.0661992  
C577     C      0.090420000000     0.074980000000     0.309720000000     0.0157863  
C578     C      0.061550000000     0.052040000000     0.824150000000     0.0186051  
C579     C      0.716290000000     0.129160000000     0.756550000000    -0.0276704  
C580     C      0.654730000000     0.960880000000     0.733230000000    -0.0280093  
C581     C      0.600330000000     0.017760000000     0.735390000000    -0.0278101  
C582     C      0.643050000000     0.035540000000     0.740630000000     0.0178553  
C583     C      0.674000000000     0.003030000000     0.739410000000     0.0188212  
C584     C      0.717010000000     0.011480000000     0.743780000000    -0.0658806  
C585     C      0.770240000000     0.071810000000     0.754490000000    -0.0280495  
C586     C      0.653480000000     0.078460000000     0.746250000000    -0.0649412  
C587     C      0.727410000000     0.054290000000     0.749430000000     0.0189462  
C588     C      0.696570000000     0.086920000000     0.750620000000     0.0176441  
C589     C      0.855520000000     0.323300000000     0.322650000000    -0.0323622  
C590     C      0.731190000000     0.345740000000     0.382330000000    -0.0272188  
C591     C      0.804940000000     0.355310000000     0.392780000000    -0.0280399  
C592     C      0.802740000000     0.348780000000     0.371370000000     0.0190715  
C593     C      0.760600000000     0.343350000000     0.365530000000     0.0179834  
C594     C      0.750010000000     0.333330000000     0.346300000000    -0.0648629  
C595     C      0.781510000000     0.313510000000     0.312810000000    -0.0282269  
C596     C      0.836700000000     0.344480000000     0.358140000000    -0.0670606  
C597     C      0.783850000000     0.329340000000     0.333100000000     0.0143721  
C598     C      0.826060000000     0.334790000000     0.338810000000     0.0207382  
C599     C      0.993780000000     0.097950000000     0.526530000000    -0.0280745  
C600     C      0.126170000000     0.027890000000     0.574370000000    -0.0269514  
C601     C      0.095170000000     0.976880000000     0.551200000000    -0.0277029  
C602     C      0.077450000000     0.021510000000     0.548330000000     0.0191607  
C603     C      0.095050000000     0.050660000000     0.561560000000     0.0168032  
C604     C      0.080610000000     0.094110000000     0.562880000000    -0.0656722  
C605     C      0.024440000000     0.149150000000     0.549700000000    -0.027305   
C606     C      0.044590000000     0.034170000000     0.535670000000    -0.0659865  
C607     C      0.048050000000     0.106920000000     0.550050000000     0.0167971  
C608     C      0.030550000000     0.077740000000     0.536810000000     0.0191105  
C609     C      0.643550000000     0.995530000000     0.503050000000    -0.0283206  
C610     C      0.745510000000     0.150780000000     0.498720000000    -0.0282971  
C611     C      0.762450000000     0.101820000000     0.525510000000    -0.0280663  
C612     C      0.725690000000     0.084700000000     0.514200000000     0.018672   
C613     C      0.716360000000     0.112350000000     0.498780000000     0.0178807  
C614     C      0.684580000000     0.101850000000     0.485210000000    -0.0651072  
C615     C      0.628140000000     0.043480000000     0.475730000000    -0.0269715  
C616     C      0.703200000000     0.045460000000     0.517110000000    -0.0658314  
C617     C      0.661860000000     0.062800000000     0.488210000000     0.0156741  
C618     C      0.670790000000     0.035420000000     0.503760000000     0.0187994  
C619     C      0.799010000000     0.379820000000     0.657920000000    -0.031773   
C620     C      0.839440000000     0.247990000000     0.602350000000    -0.0273818  
C621     C      0.851560000000     0.322760000000     0.591410000000    -0.0290706  
C622     C      0.838450000000     0.322060000000     0.612180000000     0.020043   
C623     C      0.831270000000     0.279360000000     0.618280000000     0.0153887  
C624     C      0.815430000000     0.269960000000     0.636810000000    -0.0645191  
C625     C      0.785750000000     0.304780000000     0.668150000000    -0.028166   
C626     C      0.830400000000     0.357790000000     0.624470000000    -0.0686416  
C627     C      0.807420000000     0.305610000000     0.649050000000     0.0169238  
C628     C      0.814780000000     0.348390000000     0.643100000000     0.0243717  
C629     C      0.602840000000     0.781270000000     0.671870000000    -0.0281306  
C630     C      0.677690000000     0.611360000000     0.664770000000    -0.0271446  
C631     C      0.709400000000     0.668580000000     0.644940000000    -0.0288191  
C632     C      0.670900000000     0.685210000000     0.655070000000     0.0194114  
C633     C      0.653000000000     0.652950000000     0.666690000000     0.0163957  
C634     C      0.619190000000     0.662550000000     0.679500000000    -0.0647695  
C635     C      0.571140000000     0.725810000000     0.692720000000    -0.0271701  
C636     C      0.655810000000     0.728390000000     0.655320000000    -0.0664772  
C637     C      0.603700000000     0.705850000000     0.679600000000     0.0170101  
C638     C      0.621560000000     0.737710000000     0.667740000000     0.0197385  
C639     C      0.981680000000     0.621200000000     0.631150000000    -0.0276223  
C640     C      0.047760000000     0.790710000000     0.612750000000    -0.0286609  
C641     C      0.098040000000     0.730950000000     0.607480000000    -0.0263448  
C642     C      0.056550000000     0.713960000000     0.615060000000     0.0153258  
C643     C      0.028320000000     0.748350000000     0.618220000000     0.0206394  
C644     C      0.987380000000     0.741540000000     0.625800000000    -0.0672947  
C645     C      0.934290000000     0.682830000000     0.637520000000    -0.0286577  
C646     C      0.044670000000     0.670340000000     0.618940000000    -0.0634265  
C647     C      0.975780000000     0.698300000000     0.629890000000     0.0202933  
C648     C      0.003260000000     0.663440000000     0.626390000000     0.0165673  
C649     C      0.797070000000     0.469350000000     0.503800000000    -0.0284141  
C650     C      0.832040000000     0.449640000000     0.584600000000    -0.0283076  
C651     C      0.813430000000     0.523030000000     0.573760000000    -0.0276585  
C652     C      0.817370000000     0.493160000000     0.557020000000     0.0172989  
C653     C      0.827920000000     0.451120000000     0.563000000000     0.0185231  
C654     C      0.830240000000     0.416390000000     0.549580000000    -0.0666349  
C655     C      0.816080000000     0.395360000000     0.513500000000    -0.0302313  
C656     C      0.808610000000     0.502990000000     0.537600000000    -0.0670865  
C657     C      0.821610000000     0.426320000000     0.530020000000     0.0222887  
C658     C      0.811120000000     0.468540000000     0.524290000000     0.0165148  
C659     C      0.619700000000     0.770090000000     0.441920000000    -0.0275344  
C660     C      0.766950000000     0.719750000000     0.398450000000    -0.0280245  
C661     C      0.732510000000     0.660690000000     0.416280000000    -0.027235   
C662     C      0.707580000000     0.701910000000     0.418110000000     0.0170889  
C663     C      0.727130000000     0.735480000000     0.407820000000     0.0191772  
C664     C      0.711340000000     0.778440000000     0.408280000000    -0.0661195  
C665     C      0.653280000000     0.828480000000     0.423300000000    -0.0275507  
C666     C      0.671380000000     0.709620000000     0.429660000000    -0.0652413  
C667     C      0.674840000000     0.786020000000     0.419590000000     0.0189986  
C668     C      0.655540000000     0.752630000000     0.430100000000     0.017754   
C669     C      0.118930000000     0.820330000000     0.380710000000    -0.0281937  
C670     C      0.032780000000     0.655840000000     0.380200000000    -0.0267572  
C671     C      0.004960000000     0.709790000000     0.402890000000    -0.0284504  
C672     C      0.044450000000     0.726130000000     0.393430000000     0.0196708  
C673     C      0.060300000000     0.695520000000     0.380380000000     0.015196   
C674     C      0.094950000000     0.705320000000     0.368130000000    -0.0660594  
C675     C      0.147250000000     0.767220000000     0.357710000000    -0.0274163  
C676     C      0.062360000000     0.767990000000     0.395050000000    -0.066441   
C677     C      0.113280000000     0.747110000000     0.369940000000     0.0171677  
C678     C      0.097320000000     0.777510000000     0.383060000000     0.0197684  
C679     C      0.837480000000     0.561950000000     0.327930000000    -0.0270861  
C680     C      0.772300000000     0.418040000000     0.777790000000    -0.0279291  
C681     C      0.765610000000     0.491520000000     0.764390000000    -0.0280838  
C682     C      0.784950000000     0.492970000000     0.783990000000     0.0188224  
C683     C      0.788700000000     0.451120000000     0.791680000000     0.0179052  
C684     C      0.809830000000     0.449990000000     0.311980000000    -0.0661509  
C685     C      0.842520000000     0.489010000000     0.342050000000    -0.0301316  
C686     C      0.797110000000     0.530090000000     0.794540000000    -0.0668654  
C687     C      0.823940000000     0.486990000000     0.322210000000     0.0219779  
C688     C      0.820860000000     0.528690000000     0.314300000000     0.0160639  
C689     C      0.252310000000     0.595000000000     0.644510000000    -0.02786    
C690     C      0.113500000000     0.532390000000     0.598460000000    -0.0268645  
C691     C      0.144800000000     0.478750000000     0.620410000000    -0.0277586  
C692     C      0.165140000000     0.522260000000     0.623070000000     0.0188712  
C693     C      0.147070000000     0.552940000000     0.610650000000     0.016517   
C694     C      0.162110000000     0.596190000000     0.609840000000    -0.0661342  
C695     C      0.219840000000     0.649130000000     0.623160000000    -0.0279072  
C696     C      0.199630000000     0.532960000000     0.635170000000    -0.0659682  
C697     C      0.196290000000     0.607010000000     0.622110000000     0.0175505  
C698     C      0.214690000000     0.576190000000     0.634360000000     0.0186294  
C699     C      0.164590000000     0.307720000000     0.550400000000    -0.0280171  
C700     C      0.240520000000     0.137610000000     0.545390000000    -0.027398   
C701     C      0.283500000000     0.197360000000     0.532490000000    -0.0280729  
C702     C      0.241460000000     0.213820000000     0.539340000000     0.019228   
C703     C      0.216980000000     0.179840000000     0.546810000000     0.0172084  
C704     C      0.176710000000     0.187600000000     0.555160000000    -0.0643528  
C705     C      0.122040000000     0.248530000000     0.564070000000    -0.0267126  
C706     C      0.226920000000     0.257280000000     0.539590000000    -0.0661998  
C707     C      0.162160000000     0.231140000000     0.555430000000     0.0164335  
C708     C      0.186510000000     0.264970000000     0.547750000000     0.0195136  
C709     C      0.945800000000     0.297550000000     0.630050000000    -0.0287792  
C710     C      0.885040000000     0.311940000000     0.707790000000    -0.0282399  
C711     C      0.890930000000     0.237660000000     0.695190000000    -0.0275099  
C712     C      0.900680000000     0.270060000000     0.679830000000     0.0166835  
C713     C      0.897360000000     0.312470000000     0.686970000000     0.0179611  
C714     C      0.908210000000     0.348790000000     0.675530000000    -0.0654961  
C715     C      0.939280000000     0.372100000000     0.642240000000    -0.029386   
C716     C      0.915130000000     0.261560000000     0.660980000000    -0.0659473  
C717     C      0.922300000000     0.340300000000     0.656580000000     0.0199806  
C718     C      0.925750000000     0.297830000000     0.649530000000     0.018886   
C719     C      0.935460000000     0.470610000000     0.532800000000    -0.0287828  
C720     C      0.909250000000     0.478620000000     0.451010000000    -0.0283416  
C721     C      0.888830000000     0.544070000000     0.468970000000    -0.0272145  
C722     C      0.902610000000     0.509010000000     0.482420000000     0.0162764  
C723     C      0.914110000000     0.471620000000     0.472220000000     0.0209499  
C724     C      0.931050000000     0.434930000000     0.481710000000    -0.0677388  
C725     C      0.954770000000     0.404580000000     0.515060000000    -0.0288676  
C726     C      0.907300000000     0.511740000000     0.502610000000    -0.0665459  
C727     C      0.934730000000     0.437150000000     0.501940000000     0.0187989  
C728     C      0.923380000000     0.474640000000     0.512100000000     0.018807   
C729     C      0.141970000000     0.519550000000     0.341750000000    -0.0282548  
C730     C      0.214260000000     0.652420000000     0.390110000000    -0.0271859  
C731     C      0.263510000000     0.618640000000     0.367210000000    -0.0280359  
C732     C      0.219660000000     0.600990000000     0.364590000000     0.0185177  
C733     C      0.191530000000     0.620170000000     0.377650000000     0.0169732  
C734     C      0.148500000000     0.607220000000     0.378660000000    -0.0667521  
C735     C      0.092010000000     0.553940000000     0.364110000000    -0.0279234  
C736     C      0.206420000000     0.567790000000     0.351870000000    -0.0661155  
C737     C      0.134990000000     0.574590000000     0.365660000000     0.0157992  
C738     C      0.163300000000     0.555220000000     0.352730000000     0.0188106  
C739     C      0.078360000000     0.269540000000     0.317630000000    -0.0275346  
C740     C      0.227420000000     0.210620000000     0.779000000000    -0.0280933  
C741     C      0.195730000000     0.156210000000     0.800410000000    -0.0265962  
C742     C      0.169100000000     0.196470000000     0.799940000000     0.0155491  
C743     C      0.187070000000     0.227370000000     0.787620000000     0.0192498  
C744     C      0.169150000000     0.269180000000     0.785480000000    -0.066297   
C745     C      0.109350000000     0.323160000000     0.295620000000    -0.0279996  
C746     C      0.132410000000     0.208210000000     0.308660000000    -0.0666744  
C747     C      0.131830000000     0.280600000000     0.293880000000     0.019326   
C748     C      0.114230000000     0.249940000000     0.306430000000     0.0175107  
C749     C      0.923780000000     0.381770000000     0.401620000000    -0.0291092  
C750     C      0.956060000000     0.306120000000     0.476060000000    -0.0280641  
C751     C      0.881430000000     0.324060000000     0.469970000000    -0.0321752  
C752     C      0.908490000000     0.336360000000     0.453020000000     0.0219806  
C753     C      0.950980000000     0.325940000000     0.456600000000     0.013101   
C754     C      0.983080000000     0.333850000000     0.442880000000    -0.0653898  
C755     C      0.997870000000     0.362750000000     0.408340000000    -0.0271188  
C756     C      0.895860000000     0.355600000000     0.435380000000    -0.0712063  
C757     C      0.970480000000     0.352860000000     0.425310000000     0.016811   
C758     C      0.928140000000     0.363600000000     0.421590000000     0.0190502  
C759     C      0.900110000000     0.416540000000     0.779880000000    -0.0288989  
C760     C      0.862760000000     0.536690000000     0.718720000000    -0.0276235  
C761     C      0.849730000000     0.460400000000     0.710430000000    -0.0289096  
C762     C      0.863070000000     0.464630000000     0.731200000000     0.0198005  
C763     C      0.870420000000     0.508290000000     0.735710000000     0.0170434  
C764     C      0.885680000000     0.521280000000     0.753900000000    -0.0673502  
C765     C      0.913200000000     0.493440000000     0.786880000000    -0.0285964  
C766     C      0.870740000000     0.431370000000     0.744950000000    -0.0647086  
C767     C      0.893150000000     0.488300000000     0.767560000000     0.0186868  
C768     C      0.885870000000     0.444500000000     0.763340000000     0.0195635  
Cd1      Cd     0.006140000000     0.415740000000     0.838310000000     0.505848   
Cd2      Cd     0.045700000000     0.387330000000     0.078550000000     0.509155   
Cd3      Cd     0.881690000000     0.588520000000     0.896590000000     0.509744   
Cd4      Cd     0.831730000000     0.561650000000     0.146710000000     0.507475   
Cd5      Cd     0.874110000000     0.232680000000     0.031760000000     0.506511   
Cd6      Cd     0.864220000000     0.217100000000     0.263940000000     0.507189   
Cd7      Cd     0.708050000000     0.380070000000     0.957240000000     0.506151   
Cd8      Cd     0.688040000000     0.402460000000     0.216230000000     0.508501   
Cd9      Cd     0.359740000000     0.713220000000     0.909110000000     0.506729   
Cd10     Cd     0.356070000000     0.730300000000     0.146450000000     0.50698    
Cd11     Cd     0.538330000000     0.909330000000     0.963560000000     0.508335   
Cd12     Cd     0.515150000000     0.880920000000     0.219530000000     0.50646    
Cd13     Cd     0.395820000000     0.058200000000     0.028520000000     0.507812   
Cd14     Cd     0.338520000000     0.086200000000     0.277070000000     0.510252   
Cd15     Cd     0.216750000000     0.914740000000     0.837430000000     0.506902   
Cd16     Cd     0.182430000000     0.884090000000     0.093960000000     0.509095   
Cd17     Cd     0.008700000000     0.418040000000     0.337700000000     0.50611    
Cd18     Cd     0.034300000000     0.388270000000     0.580880000000     0.508724   
Cd19     Cd     0.881340000000     0.597240000000     0.398060000000     0.51042    
Cd20     Cd     0.830690000000     0.553870000000     0.646220000000     0.506914   
Cd21     Cd     0.880040000000     0.221670000000     0.530790000000     0.506434   
Cd22     Cd     0.860260000000     0.211430000000     0.768090000000     0.507832   
Cd23     Cd     0.711700000000     0.376860000000     0.455380000000     0.506777   
Cd24     Cd     0.687970000000     0.394580000000     0.713860000000     0.508548   
Cd25     Cd     0.364210000000     0.713770000000     0.409750000000     0.507089   
Cd26     Cd     0.358450000000     0.726480000000     0.646580000000     0.507779   
Cd27     Cd     0.533100000000     0.908460000000     0.461300000000     0.508991   
Cd28     Cd     0.513980000000     0.876460000000     0.718850000000     0.505953   
Cd29     Cd     0.387790000000     0.065220000000     0.529910000000     0.506982   
Cd30     Cd     0.338350000000     0.083160000000     0.778960000000     0.509873   
Cd31     Cd     0.215380000000     0.916880000000     0.337530000000     0.506354   
Cd32     Cd     0.184920000000     0.875670000000     0.595860000000     0.508942   
H1       H      0.351230000000     0.004620000000     0.213480000000     0.0556     
H2       H      0.238210000000     0.006970000000     0.232190000000     0.0542046  
H3       H      0.194410000000     0.947400000000     0.206090000000     0.048762   
H4       H      0.344590000000     0.945210000000     0.180760000000     0.052366   
H5       H      0.293760000000     0.943990000000     0.144900000000     0.0532564  
H6       H      0.188110000000     0.889480000000     0.170280000000     0.0498019  
H7       H      0.356390000000     0.951840000000     0.225120000000     0.0545607  
H8       H      0.249030000000     0.954300000000     0.243050000000     0.0510944  
H9       H      0.182130000000     0.946620000000     0.163820000000     0.0533284  
H10      H      0.296390000000     0.886990000000     0.152020000000     0.0569895  
H11      H      0.298570000000     0.892410000000     0.900220000000     0.0595702  
H12      H      0.272020000000     0.008920000000     0.890490000000     0.0544647  
H13      H      0.319230000000     0.055890000000     0.920050000000     0.0489158  
H14      H      0.356140000000     0.899220000000     0.934510000000     0.0559791  
H15      H      0.346870000000     0.939120000000     0.974210000000     0.0452671  
H16      H      0.372680000000     0.063700000000     0.955750000000     0.0532588  
H17      H      0.350570000000     0.901770000000     0.889680000000     0.0494658  
H18      H      0.324380000000     0.015650000000     0.880030000000     0.0498769  
H19      H      0.317740000000     0.053270000000     0.962570000000     0.0522095  
H20      H      0.401390000000     0.950770000000     0.967170000000     0.0624929  
H21      H      0.441960000000     0.044060000000     0.100390000000     0.0532243  
H22      H      0.418670000000     0.932410000000     0.084050000000     0.0452747  
H23      H      0.391180000000     0.887950000000     0.120440000000     0.0600936  
H24      H      0.424870000000     0.040990000000     0.141770000000     0.04995    
H25      H      0.461750000000     0.989810000000     0.172150000000     0.0560513  
H26      H      0.383500000000     0.883790000000     0.165240000000     0.0539276  
H27      H      0.385230000000     0.055000000000     0.102100000000     0.0543752  
H28      H      0.361780000000     0.943590000000     0.085470000000     0.0530115  
H29      H      0.436920000000     0.873600000000     0.156280000000     0.0645833  
H30      H      0.406820000000     0.992230000000     0.180250000000     0.0455589  
H31      H      0.478240000000     0.905600000000     0.894130000000     0.0535242  
H32      H      0.480340000000     0.018830000000     0.913670000000     0.0536107  
H33      H      0.419670000000     0.065850000000     0.888140000000     0.0487156  
H34      H      0.417070000000     0.913050000000     0.861240000000     0.0505589  
H35      H      0.408940000000     0.971490000000     0.323710000000     0.0538088  
H36      H      0.358350000000     0.072730000000     0.854770000000     0.0519525  
H37      H      0.425770000000     0.898830000000     0.904740000000     0.0514594  
H38      H      0.427960000000     0.009530000000     0.923920000000     0.0508852  
H39      H      0.412060000000     0.081190000000     0.845730000000     0.0534006  
H40      H      0.356330000000     0.962450000000     0.834900000000     0.0622452  
H41      H      0.315420000000     0.920450000000     0.275010000000     0.0595704  
H42      H      0.204580000000     0.890320000000     0.762660000000     0.0498107  
H43      H      0.213270000000     0.837210000000     0.227330000000     0.0484943  
H44      H      0.365850000000     0.873030000000     0.243330000000     0.0632061  
H45      H      0.364920000000     0.868480000000     0.198750000000     0.0546329  
H46      H      0.260480000000     0.788200000000     0.197990000000     0.055157   
H47      H      0.325100000000     0.864380000000     0.282290000000     0.0453836  
H48      H      0.213640000000     0.837020000000     0.270290000000     0.0525408  
H49      H      0.255580000000     0.842190000000     0.187630000000     0.0503452  
H50      H      0.374690000000     0.815120000000     0.209190000000     0.0661856  
H51      H      0.425650000000     0.735070000000     0.077120000000     0.0526396  
H52      H      0.405790000000     0.847550000000     0.093220000000     0.0462974  
H53      H      0.391930000000     0.896350000000     0.056480000000     0.058777   
H54      H      0.424620000000     0.743210000000     0.034760000000     0.0488062  
H55      H      0.473990000000     0.795330000000     0.007950000000     0.0555201  
H56      H      0.397540000000     0.903250000000     0.011530000000     0.0611541  
H57      H      0.369610000000     0.729600000000     0.071070000000     0.0501491  
H58      H      0.349330000000     0.841680000000     0.087770000000     0.0557796  
H59      H      0.447480000000     0.911990000000     0.024250000000     0.0684176  
H60      H      0.422020000000     0.796760000000     0.996440000000     0.0486695  
H61      H      0.306680000000     0.785710000000     0.059470000000     0.0523356  
H62      H      0.312590000000     0.895320000000     0.041540000000     0.054667   
H63      H      0.316710000000     0.883250000000     0.996870000000     0.0479714  
H64      H      0.310380000000     0.729520000000     0.022410000000     0.0492343  
H65      H      0.364160000000     0.720570000000     0.985440000000     0.0488819  
H66      H      0.312220000000     0.830730000000     0.961280000000     0.0498535  
H67      H      0.254770000000     0.776480000000     0.048770000000     0.0557824  
H68      H      0.260720000000     0.892150000000     0.030060000000     0.0569767  
H69      H      0.368780000000     0.830390000000     0.966830000000     0.0505529  
H70      H      0.307380000000     0.716390000000     0.980690000000     0.0530861  
H71      H      0.408860000000     0.891190000000     0.278930000000     0.0512389  
H72      H      0.518980000000     0.868010000000     0.793220000000     0.0526966  
H73      H      0.508850000000     0.822510000000     0.831990000000     0.0496738  
H74      H      0.357810000000     0.848940000000     0.312330000000     0.0581921  
H75      H      0.354520000000     0.852940000000     0.857250000000     0.0582345  
H76      H      0.463100000000     0.779810000000     0.862320000000     0.0563094  
H77      H      0.402590000000     0.832990000000     0.274930000000     0.0474205  
H78      H      0.514130000000     0.815990000000     0.290400000000     0.0527615  
H79      H      0.459730000000     0.835710000000     0.871010000000     0.0465389  
H80      H      0.348430000000     0.798120000000     0.347400000000     0.0616119  
H81      H      0.483880000000     0.623880000000     0.143210000000     0.0538402  
H82      H      0.436120000000     0.627110000000     0.193190000000     0.0552082  
H83      H      0.503700000000     0.586900000000     0.217200000000     0.0504732  
H84      H      0.565060000000     0.578660000000     0.149990000000     0.0496687  
H85      H      0.589250000000     0.492340000000     0.167880000000     0.0535359  
H86      H      0.588110000000     0.539560000000     0.223300000000     0.0517775  
H87      H      0.518560000000     0.667970000000     0.151000000000     0.0504168  
H88      H      0.472460000000     0.671590000000     0.198460000000     0.0516376  
H89      H      0.547080000000     0.500240000000     0.217090000000     0.0516698  
H90      H      0.631240000000     0.530650000000     0.173690000000     0.0520585  
H91      H      0.548170000000     0.310620000000     0.211490000000     0.0523424  
H92      H      0.596120000000     0.302490000000     0.260700000000     0.0535961  
H93      H      0.558690000000     0.220520000000     0.276030000000     0.0494608  
H94      H      0.492710000000     0.232470000000     0.209860000000     0.0499262  
H95      H      0.421240000000     0.198860000000     0.233970000000     0.0532947  
H96      H      0.499320000000     0.141510000000     0.274200000000     0.0512076  
H97      H      0.583550000000     0.266990000000     0.203810000000     0.0516751  
H98      H      0.630390000000     0.259270000000     0.251660000000     0.052869   
H99      H      0.470590000000     0.189260000000     0.282720000000     0.0527758  
H100     H      0.450940000000     0.150770000000     0.226590000000     0.052278   
H101     H      0.514490000000     0.636270000000     0.905460000000     0.0518315  
H102     H      0.432790000000     0.554340000000     0.914640000000     0.0519089  
H103     H      0.476730000000     0.490660000000     0.941660000000     0.0500439  
H104     H      0.589760000000     0.603750000000     0.928750000000     0.0499312  
H105     H      0.640060000000     0.521090000000     0.930690000000     0.0546136  
H106     H      0.552880000000     0.458130000000     0.965000000000     0.0511151  
H107     H      0.509460000000     0.657170000000     0.929910000000     0.054082   
H108     H      0.426060000000     0.573630000000     0.939260000000     0.0532458  
H109     H      0.556460000000     0.437230000000     0.940500000000     0.0532084  
H110     H      0.634160000000     0.539480000000     0.955490000000     0.0516862  
H111     H      0.673010000000     0.259970000000     0.012140000000     0.0535975  
H112     H      0.674820000000     0.206510000000     0.966170000000     0.0464142  
H113     H      0.595190000000     0.145460000000     0.967820000000     0.0478324  
H114     H      0.593350000000     0.221250000000     0.032320000000     0.0508249  
H115     H      0.552640000000     0.131770000000     0.041290000000     0.0493946  
H116     H      0.516290000000     0.113740000000     0.984940000000     0.0553513  
H117     H      0.623920000000     0.289020000000     0.006790000000     0.0556447  
H118     H      0.625970000000     0.232630000000     0.958230000000     0.0523907  
H119     H      0.554390000000     0.076430000000     0.995550000000     0.0551661  
H120     H      0.514520000000     0.172160000000     0.032890000000     0.0561259  
H121     H      0.948920000000     0.131050000000     0.823500000000     0.0520095  
H122     H      0.022560000000     0.185790000000     0.791150000000     0.0498873  
H123     H      0.098690000000     0.122840000000     0.789570000000     0.0485277  
H124     H      0.994400000000     0.048800000000     0.330470000000     0.050237   
H125     H      0.082380000000     0.020390000000     0.850260000000     0.0513206  
H126     H      0.145920000000     0.042730000000     0.297590000000     0.0557151  
H127     H      0.939350000000     0.091500000000     0.301430000000     0.0536733  
H128     H      0.017700000000     0.146870000000     0.269400000000     0.052959   
H129     H      0.156890000000     0.076060000000     0.819500000000     0.0508287  
H130     H      0.065520000000     0.985260000000     0.328570000000     0.053708   
H131     H      0.588510000000     0.038800000000     0.220800000000     0.0522865  
H132     H      0.669590000000     0.952740000000     0.218640000000     0.0522661  
H133     H      0.743290000000     0.991290000000     0.240810000000     0.0501635  
H134     H      0.632350000000     0.110170000000     0.243680000000     0.0493163  
H135     H      0.714620000000     0.160470000000     0.240260000000     0.0536176  
H136     H      0.786950000000     0.062190000000     0.263740000000     0.052267   
H137     H      0.579880000000     0.027790000000     0.246280000000     0.0531992  
H138     H      0.661660000000     0.940910000000     0.244100000000     0.0529     
H139     H      0.795740000000     0.072780000000     0.238230000000     0.0530203  
H140     H      0.706740000000     0.148970000000     0.265750000000     0.0516833  
H141     H      0.817400000000     0.394370000000     0.897980000000     0.0511554  
H142     H      0.707650000000     0.385340000000     0.881790000000     0.0526299  
H143     H      0.714730000000     0.333950000000     0.843870000000     0.0499248  
H144     H      0.867420000000     0.347930000000     0.865180000000     0.0586865  
H145     H      0.872080000000     0.348710000000     0.819940000000     0.0598554  
H146     H      0.759200000000     0.282760000000     0.815250000000     0.0560004  
H147     H      0.820540000000     0.335960000000     0.902190000000     0.0476306  
H148     H      0.707830000000     0.326720000000     0.885690000000     0.0532758  
H149     H      0.766560000000     0.338590000000     0.303310000000     0.0473954  
H150     H      0.875670000000     0.294930000000     0.830930000000     0.0614027  
H151     H      0.103400000000     0.971120000000     0.036750000000     0.0518176  
H152     H      0.155550000000     0.048620000000     0.067860000000     0.0495715  
H153     H      0.090280000000     0.124000000000     0.070800000000     0.0466861  
H154     H      0.017380000000     0.015060000000     0.027500000000     0.0504224  
H155     H      0.984960000000     0.103710000000     0.012340000000     0.0513467  
H156     H      0.006770000000     0.164680000000     0.064190000000     0.055655   
H157     H      0.063020000000     0.958830000000     0.054750000000     0.0539221  
H158     H      0.117460000000     0.039770000000     0.087240000000     0.0529017  
H159     H      0.037140000000     0.181650000000     0.043150000000     0.0520868  
H160     H      0.952230000000     0.083100000000     0.031970000000     0.0533369  
H161     H      0.756980000000     0.113560000000     0.035930000000     0.053814   
H162     H      0.774980000000     0.148440000000     0.984260000000     0.0544429  
H163     H      0.698450000000     0.114940000000     0.964700000000     0.0480028  
H164     H      0.675400000000     0.067420000000     0.033610000000     0.0504235  
H165     H      0.645490000000     0.990820000000     0.010540000000     0.0537098  
H166     H      0.615260000000     0.063250000000     0.962660000000     0.0475229  
H167     H      0.718580000000     0.157810000000     0.037560000000     0.0499656  
H168     H      0.735860000000     0.191040000000     0.988570000000     0.0532242  
H169     H      0.660570000000     0.026820000000     0.960210000000     0.0517006  
H170     H      0.599860000000     0.026690000000     0.012910000000     0.0531432  
H171     H      0.878920000000     0.347340000000     0.090570000000     0.0547587  
H172     H      0.864010000000     0.234440000000     0.107230000000     0.0495084  
H173     H      0.807890000000     0.244860000000     0.143070000000     0.0485974  
H174     H      0.831540000000     0.399860000000     0.121490000000     0.0596245  
H175     H      0.825620000000     0.406070000000     0.166460000000     0.0599984  
H176     H      0.755150000000     0.294000000000     0.169850000000     0.0554112  
H177     H      0.822600000000     0.350300000000     0.084500000000     0.0460795  
H178     H      0.808010000000     0.236900000000     0.100790000000     0.0527478  
H179     H      0.807040000000     0.297280000000     0.181290000000     0.0508397  
H180     H      0.774830000000     0.411680000000     0.154090000000     0.0672832  
H181     H      0.736240000000     0.694380000000     0.147310000000     0.0563537  
H182     H      0.688900000000     0.603960000000     0.178930000000     0.0549543  
H183     H      0.607460000000     0.642640000000     0.189730000000     0.0511992  
H184     H      0.668590000000     0.758220000000     0.146110000000     0.0506186  
H185     H      0.627060000000     0.809740000000     0.175660000000     0.054588   
H186     H      0.539210000000     0.716750000000     0.190710000000     0.0518139  
H187     H      0.702340000000     0.672580000000     0.128360000000     0.0507517  
H188     H      0.658070000000     0.590640000000     0.157440000000     0.0469275  
H189     H      0.580550000000     0.724360000000     0.208750000000     0.0523685  
H190     H      0.583330000000     0.798080000000     0.159280000000     0.0530384  
H191     H      0.101350000000     0.726690000000     0.091890000000     0.0493738  
H192     H      0.027430000000     0.815780000000     0.102000000000     0.0526158  
H193     H      0.966110000000     0.777310000000     0.130730000000     0.0505928  
H194     H      0.065060000000     0.652150000000     0.115690000000     0.0463074  
H195     H      0.979390000000     0.608510000000     0.119020000000     0.0536879  
H196     H      0.931100000000     0.702720000000     0.155010000000     0.0521404  
H197     H      0.124090000000     0.731210000000     0.115920000000     0.0502348  
H198     H      0.049070000000     0.822310000000     0.126160000000     0.054077   
H199     H      0.907710000000     0.702850000000     0.131010000000     0.0551729  
H200     H      0.999780000000     0.611800000000     0.143530000000     0.0505142  
H201     H      0.787530000000     0.546840000000     0.074900000000     0.0530338  
H202     H      0.810160000000     0.435090000000     0.092110000000     0.0453247  
H203     H      0.835180000000     0.388840000000     0.055820000000     0.0611484  
H204     H      0.802390000000     0.541510000000     0.033560000000     0.0501184  
H205     H      0.763080000000     0.489340000000     0.004140000000     0.0560912  
H206     H      0.841600000000     0.383500000000     0.010810000000     0.054754   
H207     H      0.844420000000     0.556410000000     0.072730000000     0.0542272  
H208     H      0.866970000000     0.445780000000     0.090050000000     0.0533254  
H209     H      0.788580000000     0.373460000000     0.020280000000     0.0649249  
H210     H      0.817470000000     0.491460000000     0.995340000000     0.0441012  
H211     H      0.763720000000     0.649120000000     0.946180000000     0.0519067  
H212     H      0.727460000000     0.662120000000     0.896560000000     0.0510519  
H213     H      0.678560000000     0.748000000000     0.897470000000     0.0496919  
H214     H      0.727320000000     0.729380000000     0.966380000000     0.0495539  
H215     H      0.640110000000     0.771990000000     0.970670000000     0.0522169  
H216     H      0.645400000000     0.828480000000     0.916940000000     0.0524546  
H217     H      0.800780000000     0.694220000000     0.943540000000     0.053115   
H218     H      0.763830000000     0.707380000000     0.892740000000     0.0530974  
H219     H      0.605580000000     0.786200000000     0.920340000000     0.0537848  
H220     H      0.679930000000     0.814390000000     0.967550000000     0.0513467  
H221     H      0.970470000000     0.734260000000     0.895460000000     0.0524162  
H222     H      0.013330000000     0.652550000000     0.860060000000     0.0528394  
H223     H      0.101080000000     0.683410000000     0.853750000000     0.0494321  
H224     H      0.044230000000     0.792290000000     0.901870000000     0.050271   
H225     H      0.095980000000     0.846860000000     0.876490000000     0.055074   
H226     H      0.175850000000     0.748350000000     0.859070000000     0.0516966  
H227     H      0.001120000000     0.706710000000     0.914090000000     0.0511466  
H228     H      0.042510000000     0.628540000000     0.880120000000     0.0462957  
H229     H      0.139010000000     0.765650000000     0.840320000000     0.0535594  
H230     H      0.135110000000     0.825390000000     0.893340000000     0.052795   
H231     H      0.790990000000     0.510280000000     0.254790000000     0.0509424  
H232     H      0.798540000000     0.399920000000     0.275270000000     0.0516801  
H233     H      0.807590000000     0.411520000000     0.816430000000     0.0513571  
H234     H      0.801250000000     0.568470000000     0.289710000000     0.0487996  
H235     H      0.856310000000     0.574510000000     0.821400000000     0.0521333  
H236     H      0.811260000000     0.469050000000     0.851730000000     0.0538233  
H237     H      0.739350000000     0.517670000000     0.266090000000     0.0530752  
H238     H      0.746850000000     0.406870000000     0.286680000000     0.0519407  
H239     H      0.865060000000     0.465270000000     0.842180000000     0.062348   
H240     H      0.802530000000     0.580300000000     0.830790000000     0.0530378  
H241     H      0.124860000000     0.471930000000     0.136140000000     0.0516381  
H242     H      0.074750000000     0.551320000000     0.105230000000     0.0488787  
H243     H      0.141450000000     0.625400000000     0.103010000000     0.0466497  
H244     H      0.211470000000     0.513500000000     0.145880000000     0.0502756  
H245     H      0.245180000000     0.600370000000     0.161800000000     0.0514019  
H246     H      0.225750000000     0.664310000000     0.110420000000     0.0554685  
H247     H      0.165260000000     0.459120000000     0.118200000000     0.054008   
H248     H      0.112940000000     0.542060000000     0.085920000000     0.0528264  
H249     H      0.194730000000     0.680960000000     0.131320000000     0.0526186  
H250     H      0.278000000000     0.580530000000     0.142030000000     0.0530817  
H251     H      0.324580000000     0.203940000000     0.047630000000     0.0539068  
H252     H      0.249750000000     0.111470000000     0.056070000000     0.0532061  
H253     H      0.164300000000     0.156260000000     0.056640000000     0.0464712  
H254     H      0.266890000000     0.280460000000     0.045970000000     0.0506319  
H255     H      0.200690000000     0.319560000000     0.072220000000     0.052646   
H256     H      0.106330000000     0.235710000000     0.054750000000     0.0504226  
H257     H      0.305820000000     0.206320000000     0.022820000000     0.0524352  
H258     H      0.233000000000     0.115910000000     0.031030000000     0.051271   
H259     H      0.124740000000     0.230330000000     0.079500000000     0.0496638  
H260     H      0.182910000000     0.326100000000     0.047420000000     0.0537375  
H261     H      0.922680000000     0.219800000000     0.193300000000     0.0534482  
H262     H      0.915660000000     0.333980000000     0.212150000000     0.050568   
H263     H      0.911250000000     0.386340000000     0.176120000000     0.0509166  
H264     H      0.921830000000     0.232070000000     0.151400000000     0.0492302  
H265     H      0.977440000000     0.279740000000     0.125050000000     0.0558835  
H266     H      0.916190000000     0.397090000000     0.131410000000     0.0543602  
H267     H      0.866250000000     0.223120000000     0.187630000000     0.0490211  
H268     H      0.859460000000     0.333690000000     0.205980000000     0.0507808  
H269     H      0.968120000000     0.395710000000     0.142920000000     0.0568012  
H270     H      0.925370000000     0.287020000000     0.114200000000     0.0533122  
H271     H      0.870630000000     0.505670000000     0.960100000000     0.0559709  
H272     H      0.983370000000     0.510320000000     0.940810000000     0.0544084  
H273     H      0.028930000000     0.452110000000     0.966700000000     0.0484053  
H274     H      0.879420000000     0.445850000000     0.992770000000     0.0515537  
H275     H      0.931380000000     0.446340000000     0.028420000000     0.0531888  
H276     H      0.037840000000     0.394710000000     0.002470000000     0.0496589  
H277     H      0.866510000000     0.452860000000     0.948390000000     0.0544548  
H278     H      0.973110000000     0.457460000000     0.930020000000     0.0515656  
H279     H      0.042210000000     0.452000000000     0.008900000000     0.0534446  
H280     H      0.929970000000     0.389280000000     0.021340000000     0.0567858  
H281     H      0.272390000000     0.633430000000     0.853050000000     0.0520078  
H282     H      0.197730000000     0.687730000000     0.885160000000     0.0499037  
H283     H      0.121760000000     0.624650000000     0.886160000000     0.0487608  
H284     H      0.226010000000     0.549210000000     0.841990000000     0.0502111  
H285     H      0.139530000000     0.523420000000     0.825110000000     0.0512526  
H286     H      0.075730000000     0.543710000000     0.876180000000     0.0555433  
H287     H      0.282370000000     0.590830000000     0.870720000000     0.0536746  
H288     H      0.205590000000     0.646620000000     0.903710000000     0.0529882  
H289     H      0.064540000000     0.578670000000     0.855570000000     0.0505372  
H290     H      0.155030000000     0.486040000000     0.844220000000     0.0537103  
H291     H      0.177870000000     0.129890000000     0.292450000000     0.046219   
H292     H      0.223590000000     0.209880000000     0.260150000000     0.0513885  
H293     H      0.182990000000     0.295830000000     0.273600000000     0.0504038  
H294     H      0.119200000000     0.182200000000     0.821040000000     0.0492183  
H295     H      0.047260000000     0.250220000000     0.815880000000     0.0519041  
H296     H      0.131420000000     0.347650000000     0.801850000000     0.054881   
H297     H      0.206540000000     0.148380000000     0.815390000000     0.0524178  
H298     H      0.254170000000     0.234320000000     0.279630000000     0.0527122  
H299     H      0.093110000000     0.331880000000     0.281790000000     0.0528393  
H300     H      0.082850000000     0.264950000000     0.835510000000     0.0532579  
H301     H      0.853470000000     0.313050000000     0.968010000000     0.0649503  
H302     H      0.967970000000     0.289090000000     0.978880000000     0.0545297  
H303     H      0.013820000000     0.339130000000     0.949200000000     0.0482314  
H304     H      0.860070000000     0.370930000000     0.933720000000     0.0619507  
H305     H      0.900210000000     0.362790000000     0.894720000000     0.0453506  
H306     H      0.020110000000     0.395180000000     0.913240000000     0.0495959  
H307     H      0.861600000000     0.366920000000     0.978150000000     0.0539326  
H308     H      0.972270000000     0.343300000000     0.989050000000     0.0502107  
H309     H      0.012690000000     0.338620000000     0.906220000000     0.0522744  
H310     H      0.908570000000     0.419230000000     0.901750000000     0.0582732  
H311     H      0.817840000000     0.454200000000     0.209500000000     0.0636791  
H312     H      0.839240000000     0.567000000000     0.221970000000     0.0527003  
H313     H      0.896910000000     0.560960000000     0.257040000000     0.0489536  
H314     H      0.866870000000     0.403430000000     0.241340000000     0.0574013  
H315     H      0.874670000000     0.404320000000     0.286220000000     0.0496146  
H316     H      0.944790000000     0.510030000000     0.785670000000     0.0545628  
H317     H      0.872700000000     0.445520000000     0.202100000000     0.0470583  
H318     H      0.894760000000     0.561820000000     0.214930000000     0.0530044  
H319     H      0.898250000000     0.518780000000     0.296590000000     0.0500308  
H320     H      0.926160000000     0.397250000000     0.274790000000     0.0591266  
H321     H      0.350440000000     0.002660000000     0.714980000000     0.0553565  
H322     H      0.237810000000     0.004800000000     0.733360000000     0.0540628  
H323     H      0.194460000000     0.943030000000     0.707660000000     0.0487383  
H324     H      0.344990000000     0.941220000000     0.682720000000     0.0525264  
H325     H      0.294540000000     0.937090000000     0.646700000000     0.053405   
H326     H      0.189430000000     0.882690000000     0.672590000000     0.0493556  
H327     H      0.356400000000     0.950190000000     0.726800000000     0.0544927  
H328     H      0.248200000000     0.952450000000     0.744600000000     0.0513729  
H329     H      0.182620000000     0.939220000000     0.665310000000     0.0535094  
H330     H      0.297950000000     0.880690000000     0.654630000000     0.0567262  
H331     H      0.294270000000     0.896850000000     0.401200000000     0.0585726  
H332     H      0.266280000000     0.012460000000     0.391180000000     0.054222   
H333     H      0.312590000000     0.060750000000     0.420930000000     0.0490057  
H334     H      0.351250000000     0.904710000000     0.435820000000     0.055809   
H335     H      0.341170000000     0.945330000000     0.475580000000     0.0465233  
H336     H      0.366240000000     0.069570000000     0.456480000000     0.053468   
H337     H      0.346530000000     0.906640000000     0.391050000000     0.0500768  
H338     H      0.318830000000     0.020430000000     0.381090000000     0.0492223  
H339     H      0.311510000000     0.059000000000     0.463570000000     0.052329   
H340     H      0.395590000000     0.956860000000     0.468340000000     0.0628327  
H341     H      0.433560000000     0.049520000000     0.601820000000     0.0528824  
H342     H      0.412360000000     0.938550000000     0.584070000000     0.0453597  
H343     H      0.387460000000     0.890360000000     0.619830000000     0.058774   
H344     H      0.420040000000     0.042050000000     0.643320000000     0.049903   
H345     H      0.460450000000     0.988460000000     0.672180000000     0.0557293  
H346     H      0.382990000000     0.882030000000     0.664630000000     0.0535642  
H347     H      0.376650000000     0.058460000000     0.604380000000     0.0541114  
H348     H      0.355270000000     0.947910000000     0.586170000000     0.0545692  
H349     H      0.435990000000     0.873720000000     0.654840000000     0.0639831  
H350     H      0.406150000000     0.989910000000     0.681150000000     0.0456612  
H351     H      0.474340000000     0.906940000000     0.391970000000     0.0525815  
H352     H      0.470920000000     0.018270000000     0.413130000000     0.0542278  
H353     H      0.410360000000     0.064910000000     0.387480000000     0.0488324  
H354     H      0.414910000000     0.914100000000     0.358580000000     0.0512752  
H355     H      0.410060000000     0.968760000000     0.825550000000     0.053946   
H356     H      0.351230000000     0.071930000000     0.353040000000     0.052794   
H357     H      0.421690000000     0.896810000000     0.401870000000     0.0516291  
H358     H      0.418440000000     0.006370000000     0.422670000000     0.0514483  
H359     H      0.405540000000     0.082850000000     0.345350000000     0.0533354  
H360     H      0.354480000000     0.963300000000     0.331840000000     0.062957   
H361     H      0.314790000000     0.919380000000     0.774210000000     0.0597236  
H362     H      0.204790000000     0.893250000000     0.263070000000     0.0502822  
H363     H      0.213660000000     0.832380000000     0.727410000000     0.0484633  
H364     H      0.365760000000     0.871040000000     0.743030000000     0.0632359  
H365     H      0.365160000000     0.864250000000     0.698570000000     0.0550947  
H366     H      0.261870000000     0.782370000000     0.698560000000     0.0551205  
H367     H      0.325310000000     0.863810000000     0.781980000000     0.0455843  
H368     H      0.213980000000     0.834490000000     0.770350000000     0.0524753  
H369     H      0.255820000000     0.835700000000     0.687670000000     0.0506266  
H370     H      0.375290000000     0.811480000000     0.709500000000     0.0664313  
H371     H      0.429730000000     0.734430000000     0.577730000000     0.0525944  
H372     H      0.409210000000     0.846100000000     0.594450000000     0.046727   
H373     H      0.395080000000     0.895880000000     0.557780000000     0.0561878  
H374     H      0.427580000000     0.743260000000     0.535270000000     0.0487483  
H375     H      0.475890000000     0.796320000000     0.508270000000     0.0561308  
H376     H      0.399350000000     0.904110000000     0.513050000000     0.0591972  
H377     H      0.373810000000     0.728480000000     0.571560000000     0.049973   
H378     H      0.352830000000     0.840280000000     0.588840000000     0.0554519  
H379     H      0.450310000000     0.911970000000     0.525010000000     0.0649912  
H380     H      0.423400000000     0.796840000000     0.497310000000     0.0508815  
H381     H      0.310880000000     0.780430000000     0.560620000000     0.0523735  
H382     H      0.314740000000     0.890720000000     0.543390000000     0.0540063  
H383     H      0.318630000000     0.880220000000     0.498640000000     0.0501373  
H384     H      0.315080000000     0.725550000000     0.523210000000     0.049149   
H385     H      0.368920000000     0.718870000000     0.486220000000     0.0494997  
H386     H      0.314640000000     0.828510000000     0.462650000000     0.0503835  
H387     H      0.258930000000     0.770700000000     0.550040000000     0.0555271  
H388     H      0.262740000000     0.887030000000     0.532070000000     0.056773   
H389     H      0.371170000000     0.829440000000     0.468220000000     0.0521653  
H390     H      0.312270000000     0.713600000000     0.481360000000     0.0534677  
H391     H      0.408440000000     0.887690000000     0.778070000000     0.0512718  
H392     H      0.519490000000     0.874360000000     0.294200000000     0.0525774  
H393     H      0.510380000000     0.827250000000     0.332620000000     0.0499165  
H394     H      0.356790000000     0.848300000000     0.811920000000     0.0589647  
H395     H      0.354850000000     0.852430000000     0.357560000000     0.0579393  
H396     H      0.465380000000     0.782270000000     0.362700000000     0.0565114  
H397     H      0.400700000000     0.829510000000     0.774530000000     0.0473654  
H398     H      0.511670000000     0.809750000000     0.789790000000     0.0524162  
H399     H      0.460980000000     0.838000000000     0.371470000000     0.0467947  
H400     H      0.346180000000     0.798960000000     0.847040000000     0.0624253  
H401     H      0.486100000000     0.621080000000     0.642570000000     0.0539404  
H402     H      0.437920000000     0.621940000000     0.692560000000     0.0553256  
H403     H      0.504640000000     0.579290000000     0.716130000000     0.0503869  
H404     H      0.566390000000     0.574150000000     0.648930000000     0.0496573  
H405     H      0.589000000000     0.486300000000     0.665860000000     0.0534312  
H406     H      0.588130000000     0.530290000000     0.721800000000     0.0519335  
H407     H      0.521240000000     0.664170000000     0.651000000000     0.0502547  
H408     H      0.474840000000     0.665570000000     0.698360000000     0.0512825  
H409     H      0.546640000000     0.491980000000     0.715000000000     0.0515753  
H410     H      0.631590000000     0.523580000000     0.672080000000     0.0526194  
H411     H      0.546700000000     0.305390000000     0.710930000000     0.0524863  
H412     H      0.600480000000     0.292310000000     0.758790000000     0.0540137  
H413     H      0.562200000000     0.210840000000     0.774010000000     0.0492905  
H414     H      0.488500000000     0.229510000000     0.709850000000     0.049913   
H415     H      0.419000000000     0.197020000000     0.735420000000     0.0532032  
H416     H      0.499810000000     0.134230000000     0.772850000000     0.0510616  
H417     H      0.579790000000     0.261200000000     0.701890000000     0.0516325  
H418     H      0.632080000000     0.248720000000     0.748230000000     0.0527429  
H419     H      0.473940000000     0.182470000000     0.782620000000     0.0526235  
H420     H      0.445880000000     0.148360000000     0.726670000000     0.0522264  
H421     H      0.520620000000     0.640930000000     0.405180000000     0.0515196  
H422     H      0.439630000000     0.556600000000     0.411070000000     0.0522037  
H423     H      0.483420000000     0.488980000000     0.436080000000     0.0503327  
H424     H      0.595950000000     0.604730000000     0.427620000000     0.0469056  
H425     H      0.646900000000     0.521230000000     0.427220000000     0.0531435  
H426     H      0.558170000000     0.453370000000     0.458780000000     0.0519538  
H427     H      0.514890000000     0.657110000000     0.430290000000     0.0526512  
H428     H      0.432310000000     0.571310000000     0.436270000000     0.0534142  
H429     H      0.563680000000     0.436470000000     0.433750000000     0.053182   
H430     H      0.640170000000     0.536670000000     0.452370000000     0.0511763  
H431     H      0.653940000000     0.280990000000     0.514780000000     0.0529875  
H432     H      0.676210000000     0.208550000000     0.474860000000     0.0466572  
H433     H      0.599940000000     0.144030000000     0.475940000000     0.0464174  
H434     H      0.569850000000     0.245580000000     0.531420000000     0.0507945  
H435     H      0.532580000000     0.158270000000     0.545460000000     0.0507654  
H436     H      0.519420000000     0.109990000000     0.490450000000     0.0558707  
H437     H      0.607540000000     0.303650000000     0.502720000000     0.0548271  
H438     H      0.630740000000     0.228470000000     0.461280000000     0.0522208  
H439     H      0.556170000000     0.084390000000     0.507280000000     0.0531775  
H440     H      0.494990000000     0.189550000000     0.531090000000     0.0561283  
H441     H      0.948900000000     0.133460000000     0.319440000000     0.0520099  
H442     H      0.025300000000     0.187970000000     0.288290000000     0.0499272  
H443     H      0.100650000000     0.124570000000     0.287470000000     0.0484218  
H444     H      0.995720000000     0.046560000000     0.834030000000     0.0501388  
H445     H      0.079730000000     0.022280000000     0.348010000000     0.0513943  
H446     H      0.144820000000     0.041420000000     0.798900000000     0.0556444  
H447     H      0.938580000000     0.088590000000     0.805810000000     0.0536777  
H448     H      0.014440000000     0.144900000000     0.772520000000     0.0531237  
H449     H      0.156640000000     0.077910000000     0.318150000000     0.0510326  
H450     H      0.066350000000     0.983600000000     0.830720000000     0.0535641  
H451     H      0.587000000000     0.034750000000     0.722460000000     0.0522614  
H452     H      0.668520000000     0.949580000000     0.719210000000     0.052145   
H453     H      0.741150000000     0.986070000000     0.742800000000     0.0502054  
H454     H      0.629370000000     0.103920000000     0.747150000000     0.0490318  
H455     H      0.711110000000     0.154970000000     0.745390000000     0.0535345  
H456     H      0.783450000000     0.055130000000     0.767530000000     0.0520295  
H457     H      0.577300000000     0.021170000000     0.747610000000     0.0533196  
H458     H      0.659780000000     0.934900000000     0.744320000000     0.0530086  
H459     H      0.793170000000     0.067730000000     0.742260000000     0.0533469  
H460     H      0.702930000000     0.140800000000     0.770600000000     0.0511668  
H461     H      0.818950000000     0.387770000000     0.396430000000     0.0509783  
H462     H      0.708260000000     0.373410000000     0.380720000000     0.0528654  
H463     H      0.717210000000     0.327330000000     0.341970000000     0.0500486  
H464     H      0.869730000000     0.346980000000     0.362680000000     0.0584887  
H465     H      0.872850000000     0.352880000000     0.317490000000     0.0586492  
H466     H      0.762690000000     0.282640000000     0.311770000000     0.0565138  
H467     H      0.824330000000     0.329270000000     0.399860000000     0.0475242  
H468     H      0.712760000000     0.314810000000     0.384040000000     0.0528128  
H469     H      0.765350000000     0.337290000000     0.805370000000     0.0464668  
H470     H      0.879300000000     0.298120000000     0.327160000000     0.0616928  
H471     H      0.113120000000     0.965840000000     0.538140000000     0.0519128  
H472     H      0.158950000000     0.041320000000     0.572390000000     0.0507006  
H473     H      0.093070000000     0.116380000000     0.573730000000     0.0466229  
H474     H      0.029770000000     0.010950000000     0.525870000000     0.0502224  
H475     H      0.000670000000     0.101370000000     0.510770000000     0.0509169  
H476     H      0.011730000000     0.157750000000     0.564300000000     0.055287   
H477     H      0.069440000000     0.952720000000     0.554350000000     0.0536013  
H478     H      0.117080000000     0.030980000000     0.589930000000     0.0527622  
H479     H      0.045490000000     0.176110000000     0.544580000000     0.0499067  
H480     H      0.964130000000     0.078210000000     0.528370000000     0.0541377  
H481     H      0.789520000000     0.078130000000     0.525610000000     0.0535169  
H482     H      0.763750000000     0.153070000000     0.484900000000     0.0540586  
H483     H      0.678250000000     0.122700000000     0.472830000000     0.0466558  
H484     H      0.710920000000     0.023590000000     0.528990000000     0.0502385  
H485     H      0.663280000000     0.965230000000     0.502210000000     0.0525177  
H486     H      0.599340000000     0.064790000000     0.475100000000     0.0468436  
H487     H      0.753030000000     0.108900000000     0.540760000000     0.0516693  
H488     H      0.727380000000     0.181780000000     0.500900000000     0.0528669  
H489     H      0.640010000000     0.038130000000     0.460690000000     0.0525706  
H490     H      0.622440000000     0.993450000000     0.516010000000     0.0522985  
H491     H      0.883970000000     0.337210000000     0.589580000000     0.0555031  
H492     H      0.866020000000     0.225290000000     0.606130000000     0.0502886  
H493     H      0.808380000000     0.236690000000     0.641260000000     0.0486234  
H494     H      0.834980000000     0.391200000000     0.619680000000     0.0592955  
H495     H      0.826070000000     0.398260000000     0.664460000000     0.0603989  
H496     H      0.755060000000     0.286380000000     0.667430000000     0.0550491  
H497     H      0.828300000000     0.341690000000     0.582570000000     0.0458108  
H498     H      0.810410000000     0.228310000000     0.599010000000     0.0523359  
H499     H      0.806430000000     0.289410000000     0.679360000000     0.0504212  
H500     H      0.775840000000     0.403580000000     0.651620000000     0.0669633  
H501     H      0.738000000000     0.688880000000     0.648350000000     0.0561867  
H502     H      0.688520000000     0.598670000000     0.679090000000     0.0546868  
H503     H      0.606510000000     0.638020000000     0.689300000000     0.0511178  
H504     H      0.670940000000     0.753830000000     0.646760000000     0.0504876  
H505     H      0.627950000000     0.805320000000     0.676060000000     0.054627   
H506     H      0.538760000000     0.712530000000     0.689620000000     0.0521814  
H507     H      0.704470000000     0.668490000000     0.628960000000     0.0508991  
H508     H      0.657920000000     0.586100000000     0.657450000000     0.0469103  
H509     H      0.578840000000     0.719810000000     0.708250000000     0.0523507  
H510     H      0.585370000000     0.794090000000     0.659010000000     0.05301    
H511     H      0.105140000000     0.717440000000     0.592840000000     0.0487066  
H512     H      0.029810000000     0.806370000000     0.600660000000     0.0524725  
H513     H      0.965550000000     0.768550000000     0.628320000000     0.0505381  
H514     H      0.066370000000     0.643290000000     0.616270000000     0.0469659  
H515     H      0.979920000000     0.599370000000     0.618240000000     0.0544108  
H516     H      0.928700000000     0.695280000000     0.652480000000     0.0524934  
H517     H      0.124960000000     0.722610000000     0.617370000000     0.0500717  
H518     H      0.048460000000     0.813690000000     0.625290000000     0.0540285  
H519     H      0.907350000000     0.693640000000     0.628100000000     0.054796   
H520     H      0.998740000000     0.603640000000     0.642980000000     0.0512805  
H521     H      0.780640000000     0.537100000000     0.574730000000     0.0527387  
H522     H      0.808450000000     0.426530000000     0.590980000000     0.0454535  
H523     H      0.837070000000     0.383200000000     0.554130000000     0.0594105  
H524     H      0.798650000000     0.535510000000     0.533190000000     0.0489063  
H525     H      0.764660000000     0.484190000000     0.502450000000     0.0559448  
H526     H      0.847640000000     0.382230000000     0.508850000000     0.0540681  
H527     H      0.836820000000     0.550390000000     0.572690000000     0.0529368  
H528     H      0.864800000000     0.439640000000     0.589110000000     0.0535232  
H529     H      0.794830000000     0.367500000000     0.517440000000     0.0637943  
H530     H      0.819580000000     0.488440000000     0.494690000000     0.0490047  
H531     H      0.713690000000     0.635150000000     0.408580000000     0.0496337  
H532     H      0.764540000000     0.721890000000     0.382370000000     0.0510113  
H533     H      0.727230000000     0.804800000000     0.400600000000     0.0501167  
H534     H      0.656890000000     0.683760000000     0.438190000000     0.04726    
H535     H      0.588790000000     0.754800000000     0.437690000000     0.0537753  
H536     H      0.675890000000     0.853030000000     0.429390000000     0.0517182  
H537     H      0.742150000000     0.647770000000     0.430740000000     0.0536505  
H538     H      0.795200000000     0.739030000000     0.403300000000     0.0547223  
H539     H      0.639030000000     0.841950000000     0.409770000000     0.0523612  
H540     H      0.625120000000     0.764310000000     0.457670000000     0.0528074  
H541     H      0.977540000000     0.732390000000     0.400430000000     0.0549369  
H542     H      0.020560000000     0.648610000000     0.365380000000     0.0530244  
H543     H      0.106160000000     0.682170000000     0.357340000000     0.0495256  
H544     H      0.048860000000     0.792430000000     0.404680000000     0.0505862  
H545     H      0.095550000000     0.846860000000     0.377450000000     0.0548307  
H546     H      0.178640000000     0.751000000000     0.360230000000     0.0523125  
H547     H      0.009790000000     0.705800000000     0.418780000000     0.0507828  
H548     H      0.050510000000     0.626870000000     0.385690000000     0.0450591  
H549     H      0.139330000000     0.765070000000     0.342000000000     0.0531659  
H550     H      0.136970000000     0.829230000000     0.394040000000     0.0529031  
H551     H      0.787640000000     0.505020000000     0.753260000000     0.0507153  
H552     H      0.797780000000     0.394640000000     0.773370000000     0.052062   
H553     H      0.811780000000     0.417480000000     0.318160000000     0.0512387  
H554     H      0.794090000000     0.562760000000     0.788550000000     0.0488166  
H555     H      0.865900000000     0.578910000000     0.321770000000     0.0518218  
H556     H      0.820220000000     0.475180000000     0.353040000000     0.0548222  
H557     H      0.735150000000     0.510380000000     0.763920000000     0.0530668  
H558     H      0.745210000000     0.399260000000     0.784140000000     0.0527049  
H559     H      0.873340000000     0.470820000000     0.342780000000     0.0638914  
H560     H      0.812640000000     0.586850000000     0.331450000000     0.0529495  
H561     H      0.128450000000     0.467920000000     0.633920000000     0.05234    
H562     H      0.081740000000     0.547760000000     0.601100000000     0.0495458  
H563     H      0.148540000000     0.619920000000     0.599890000000     0.0472107  
H564     H      0.214560000000     0.508680000000     0.644430000000     0.0501282  
H565     H      0.247150000000     0.595670000000     0.660470000000     0.051383   
H566     H      0.232110000000     0.659150000000     0.608670000000     0.0557693  
H567     H      0.168700000000     0.453470000000     0.616170000000     0.0521392  
H568     H      0.121290000000     0.535180000000     0.582750000000     0.052558   
H569     H      0.198990000000     0.675680000000     0.628920000000     0.0532481  
H570     H      0.281900000000     0.575980000000     0.641360000000     0.0529182  
H571     H      0.310310000000     0.213560000000     0.540300000000     0.0539675  
H572     H      0.244850000000     0.122310000000     0.559910000000     0.0523428  
H573     H      0.157990000000     0.161260000000     0.561380000000     0.0463794  
H574     H      0.246310000000     0.283840000000     0.533980000000     0.0502611  
H575     H      0.184490000000     0.330790000000     0.559030000000     0.0522753  
H576     H      0.093430000000     0.234810000000     0.556680000000     0.0509833  
H577     H      0.287530000000     0.202990000000     0.516650000000     0.0520079  
H578     H      0.223380000000     0.114110000000     0.535830000000     0.0512251  
H579     H      0.119990000000     0.240790000000     0.579820000000     0.0518348  
H580     H      0.157100000000     0.323130000000     0.536180000000     0.0524966  
H581     H      0.918230000000     0.214870000000     0.697580000000     0.0534732  
H582     H      0.909160000000     0.328960000000     0.716950000000     0.0503033  
H583     H      0.906970000000     0.381820000000     0.681250000000     0.0502078  
H584     H      0.919140000000     0.228380000000     0.655680000000     0.0491655  
H585     H      0.975800000000     0.277890000000     0.630010000000     0.0550253  
H586     H      0.913730000000     0.394650000000     0.637100000000     0.0557147  
H587     H      0.862050000000     0.218180000000     0.691400000000     0.049129   
H588     H      0.853360000000     0.327830000000     0.710010000000     0.0517925  
H589     H      0.965730000000     0.391950000000     0.648510000000     0.0568935  
H590     H      0.923900000000     0.283900000000     0.618920000000     0.052398   
H591     H      0.908680000000     0.574060000000     0.470720000000     0.0530025  
H592     H      0.940040000000     0.473640000000     0.443200000000     0.0528616  
H593     H      0.942280000000     0.406840000000     0.473710000000     0.0517639  
H594     H      0.899680000000     0.541490000000     0.510470000000     0.0487168  
H595     H      0.957560000000     0.497360000000     0.537250000000     0.0548679  
H596     H      0.934680000000     0.374620000000     0.516180000000     0.0559167  
H597     H      0.854690000000     0.552790000000     0.471410000000     0.0517001  
H598     H      0.884910000000     0.456030000000     0.444830000000     0.0539971  
H599     H      0.987270000000     0.395090000000     0.509950000000     0.0539851  
H600     H      0.906850000000     0.471580000000     0.542330000000     0.0516205  
H601     H      0.274620000000     0.635810000000     0.353900000000     0.0519482  
H602     H      0.201350000000     0.686040000000     0.387930000000     0.0501654  
H603     H      0.126940000000     0.621370000000     0.389240000000     0.0485089  
H604     H      0.228680000000     0.552040000000     0.342030000000     0.0502442  
H605     H      0.141520000000     0.526830000000     0.325930000000     0.0513638  
H606     H      0.081180000000     0.540480000000     0.378290000000     0.0549523  
H607     H      0.286680000000     0.592120000000     0.370760000000     0.053753   
H608     H      0.211470000000     0.643780000000     0.405750000000     0.0531324  
H609     H      0.067900000000     0.577920000000     0.358840000000     0.0504538  
H610     H      0.158340000000     0.487580000000     0.344050000000     0.053729   
H611     H      0.177800000000     0.127790000000     0.794500000000     0.0463111  
H612     H      0.224900000000     0.208290000000     0.762940000000     0.0515591  
H613     H      0.183860000000     0.293720000000     0.776290000000     0.0504122  
H614     H      0.119630000000     0.184760000000     0.318940000000     0.0492463  
H615     H      0.047590000000     0.253070000000     0.314110000000     0.0520926  
H616     H      0.131860000000     0.349970000000     0.299550000000     0.0547976  
H617     H      0.206900000000     0.151500000000     0.313030000000     0.0526483  
H618     H      0.255030000000     0.232000000000     0.782720000000     0.0527922  
H619     H      0.093630000000     0.329220000000     0.783730000000     0.0528484  
H620     H      0.083970000000     0.267210000000     0.333540000000     0.0533688  
H621     H      0.855890000000     0.300540000000     0.465760000000     0.0652933  
H622     H      0.970750000000     0.272960000000     0.475070000000     0.0550667  
H623     H      0.016160000000     0.325310000000     0.445680000000     0.0496528  
H624     H      0.862720000000     0.363650000000     0.432490000000     0.0632378  
H625     H      0.901760000000     0.361490000000     0.392770000000     0.0453808  
H626     H      0.022520000000     0.387660000000     0.412040000000     0.0526476  
H627     H      0.866250000000     0.353540000000     0.476480000000     0.0557708  
H628     H      0.976440000000     0.327000000000     0.485500000000     0.0467862  
H629     H      0.014240000000     0.332750000000     0.402930000000     0.0529424  
H630     H      0.911660000000     0.416050000000     0.401930000000     0.0593757  
H631     H      0.816820000000     0.446810000000     0.709260000000     0.0633046  
H632     H      0.836160000000     0.560060000000     0.721600000000     0.052482   
H633     H      0.892520000000     0.555320000000     0.757090000000     0.0490646  
H634     H      0.866200000000     0.397100000000     0.741400000000     0.055854   
H635     H      0.872790000000     0.398430000000     0.786360000000     0.0499739  
H636     H      0.949630000000     0.513790000000     0.285040000000     0.05422    
H637     H      0.871960000000     0.438950000000     0.702160000000     0.0463778  
H638     H      0.891940000000     0.555690000000     0.714880000000     0.0530888  
H639     H      0.892740000000     0.512940000000     0.796790000000     0.0504081  
H640     H      0.924680000000     0.392350000000     0.775190000000     0.0589058  
N1       N      0.233210000000     0.912930000000     0.149490000000    -0.151747   
N2       N      0.304600000000     0.990880000000     0.235500000000    -0.151598   
N3       N      0.363180000000     0.007160000000     0.973510000000    -0.149658   
N4       N      0.303320000000     0.949410000000     0.882100000000    -0.151853   
N5       N      0.431010000000     0.927530000000     0.176200000000    -0.153207   
N6       N      0.402070000000     0.000190000000     0.084380000000    -0.151089   
N7       N      0.377730000000     0.028660000000     0.832390000000    -0.149896   
N8       N      0.462350000000     0.951530000000     0.916490000000    -0.151375   
N9       N      0.319750000000     0.819410000000     0.190580000000    -0.151369   
N10      N      0.259300000000     0.882910000000     0.281180000000    -0.151413   
N11      N      0.447500000000     0.859490000000     0.003470000000    -0.150582   
N12      N      0.384180000000     0.781660000000     0.090690000000    -0.151738   
N13      N      0.339890000000     0.767150000000     0.965170000000    -0.152873   
N14      N      0.272720000000     0.843840000000     0.052020000000    -0.151162   
N15      N      0.399480000000     0.804940000000     0.866600000000    -0.151446   
N16      N      0.467310000000     0.855360000000     0.276060000000    -0.15239    
N17      N      0.601150000000     0.500920000000     0.198120000000    -0.151263   
N18      N      0.462690000000     0.659240000000     0.168320000000    -0.151163   
N19      N      0.444950000000     0.159240000000     0.257210000000    -0.151228   
N20      N      0.602370000000     0.299640000000     0.229810000000    -0.151153   
N21      N      0.610080000000     0.475290000000     0.949920000000    -0.151098   
N22      N      0.456600000000     0.618760000000     0.919950000000    -0.150516   
N23      N      0.517900000000     0.113170000000     0.016030000000    -0.150035   
N24      N      0.657600000000     0.263820000000     0.982090000000    -0.152151   
N25      N      0.126430000000     0.015950000000     0.826650000000    -0.150439   
N26      N      0.967850000000     0.150380000000     0.290650000000    -0.151184   
N27      N      0.765260000000     0.124670000000     0.253860000000    -0.1506     
N28      N      0.610840000000     0.976370000000     0.230520000000    -0.150727   
N29      N      0.823960000000     0.303950000000     0.810770000000    -0.151875   
N30      N      0.757120000000     0.361980000000     0.900440000000    -0.152285   
N31      N      0.980030000000     0.146290000000     0.036750000000    -0.151103   
N32      N      0.119810000000     0.989310000000     0.065660000000    -0.151242   
N33      N      0.618300000000     0.012040000000     0.983710000000    -0.152982   
N34      N      0.762820000000     0.163250000000     0.014130000000    -0.150165   
N35      N      0.778750000000     0.359070000000     0.174720000000    -0.151642   
N36      N      0.847430000000     0.285560000000     0.087430000000    -0.152247   
N37      N      0.573390000000     0.776960000000     0.188400000000    -0.150651   
N38      N      0.713310000000     0.628940000000     0.151940000000    -0.150618   
N39      N      0.939650000000     0.643480000000     0.139110000000    -0.15098    
N40      N      0.089120000000     0.787480000000     0.106250000000    -0.150843   
N41      N      0.793530000000     0.426890000000     0.000060000000    -0.152152   
N42      N      0.827120000000     0.502770000000     0.091000000000    -0.151389   
N43      N      0.629790000000     0.814460000000     0.946480000000    -0.151337   
N44      N      0.778700000000     0.666160000000     0.916920000000    -0.151291   
N45      N      0.147880000000     0.811240000000     0.863620000000    -0.150462   
N46      N      0.990540000000     0.669170000000     0.888430000000    -0.152124   
N47      N      0.840150000000     0.530310000000     0.844250000000    -0.150116   
N48      N      0.760010000000     0.451180000000     0.263450000000    -0.151755   
N49      N      0.251070000000     0.644340000000     0.137910000000    -0.151261   
N50      N      0.109260000000     0.491160000000     0.107260000000    -0.151366   
N51      N      0.139780000000     0.291380000000     0.065950000000    -0.150809   
N52      N      0.292890000000     0.146220000000     0.037480000000    -0.151335   
N53      N      0.957470000000     0.346370000000     0.121280000000    -0.151096   
N54      N      0.888290000000     0.270390000000     0.208100000000    -0.152747   
N55      N      0.992560000000     0.416800000000     0.023500000000    -0.152068   
N56      N      0.917150000000     0.493160000000     0.937870000000    -0.151356   
N57      N      0.095010000000     0.518570000000     0.848480000000    -0.150215   
N58      N      0.254660000000     0.649630000000     0.882070000000    -0.151194   
N59      N      0.077200000000     0.312610000000     0.812840000000    -0.150337   
N60      N      0.231430000000     0.169440000000     0.285140000000    -0.151876   
N61      N      0.965520000000     0.383070000000     0.895410000000    -0.151651   
N62      N      0.908400000000     0.319470000000     0.986460000000    -0.152099   
N63      N      0.920790000000     0.453190000000     0.293510000000    -0.152001   
N64      N      0.852980000000     0.512690000000     0.203500000000    -0.149861   
N65      N      0.234420000000     0.905360000000     0.651580000000    -0.151694   
N66      N      0.304050000000     0.988640000000     0.737050000000    -0.151807   
N67      N      0.357420000000     0.013390000000     0.474530000000    -0.149787   
N68      N      0.299120000000     0.953690000000     0.383020000000    -0.151642   
N69      N      0.430400000000     0.925730000000     0.675710000000    -0.153142   
N70      N      0.393990000000     0.005710000000     0.585590000000    -0.150856   
N71      N      0.374480000000     0.030120000000     0.330570000000    -0.149868   
N72      N      0.455190000000     0.950190000000     0.414830000000    -0.152202   
N73      N      0.320450000000     0.814420000000     0.690820000000    -0.151471   
N74      N      0.259260000000     0.881310000000     0.780800000000    -0.151519   
N75      N      0.448290000000     0.860020000000     0.504040000000    -0.1511     
N76      N      0.387730000000     0.780220000000     0.591460000000    -0.15181    
N77      N      0.343830000000     0.765540000000     0.466190000000    -0.15238    
N78      N      0.275910000000     0.838220000000     0.553680000000    -0.15117    
N79      N      0.401310000000     0.806050000000     0.367060000000    -0.151538   
N80      N      0.465950000000     0.850220000000     0.775320000000    -0.152393   
N81      N      0.600950000000     0.493040000000     0.696190000000    -0.151318   
N82      N      0.465060000000     0.655110000000     0.668080000000    -0.151396   
N83      N      0.444100000000     0.155010000000     0.757500000000    -0.151186   
N84      N      0.602650000000     0.291610000000     0.727750000000    -0.150997   
N85      N      0.616260000000     0.473240000000     0.445080000000    -0.151009   
N86      N      0.462660000000     0.620080000000     0.418740000000    -0.150578   
N87      N      0.508920000000     0.124950000000     0.520520000000    -0.150291   
N88      N      0.652070000000     0.270420000000     0.484230000000    -0.151156   
N89      N      0.125650000000     0.017910000000     0.325190000000    -0.150292   
N90      N      0.965860000000     0.147500000000     0.794410000000    -0.151145   
N91      N      0.761830000000     0.118230000000     0.758460000000    -0.150653   
N92      N      0.609210000000     0.971520000000     0.731140000000    -0.150751   
N93      N      0.826530000000     0.306980000000     0.307530000000    -0.151665   
N94      N      0.759970000000     0.352790000000     0.398810000000    -0.152292   
N95      N      0.989940000000     0.141120000000     0.535720000000    -0.150823   
N96      N      0.123990000000     0.982230000000     0.567810000000    -0.151251   
N97      N      0.618320000000     0.001810000000     0.485330000000    -0.151803   
N98      N      0.773930000000     0.142220000000     0.515210000000    -0.150586   
N99      N      0.778860000000     0.351300000000     0.672430000000    -0.15164    
N100     N      0.851210000000     0.276270000000     0.586010000000    -0.152331   
N101     N      0.573240000000     0.772650000000     0.687920000000    -0.150452   
N102     N      0.713810000000     0.623710000000     0.652290000000    -0.150501   
N103     N      0.938870000000     0.635060000000     0.637500000000    -0.150846   
N104     N      0.091010000000     0.778530000000     0.606590000000    -0.150945   
N105     N      0.797510000000     0.423020000000     0.498180000000    -0.150801   
N106     N      0.822690000000     0.494920000000     0.590490000000    -0.151239   
N107     N      0.619980000000     0.817030000000     0.437380000000    -0.151215   
N108     N      0.769740000000     0.673950000000     0.404740000000    -0.151463   
N109     N      0.148180000000     0.812860000000     0.364410000000    -0.15046    
N110     N      0.998040000000     0.667200000000     0.393590000000    -0.151708   
N111     N      0.849270000000     0.536110000000     0.345030000000    -0.14929    
N112     N      0.758140000000     0.444670000000     0.761300000000    -0.151823   
N113     N      0.254900000000     0.639570000000     0.636660000000    -0.151278   
N114     N      0.113810000000     0.486520000000     0.604820000000    -0.151603   
N115     N      0.125320000000     0.295910000000     0.560800000000    -0.150537   
N116     N      0.281700000000     0.150380000000     0.536870000000    -0.151174   
N117     N      0.954450000000     0.343990000000     0.626410000000    -0.151692   
N118     N      0.882990000000     0.265010000000     0.712290000000    -0.152606   
N119     N      0.956330000000     0.427620000000     0.533710000000    -0.15116    
N120     N      0.894810000000     0.524250000000     0.449780000000    -0.150442   
N121     N      0.098420000000     0.519170000000     0.349700000000    -0.150295   
N122     N      0.258750000000     0.649460000000     0.383410000000    -0.15123    
N123     N      0.077930000000     0.315230000000     0.311020000000    -0.150458   
N124     N      0.231880000000     0.167080000000     0.787740000000    -0.151741   
N125     N      0.967600000000     0.379850000000     0.393980000000    -0.151105   
N126     N      0.912160000000     0.304180000000     0.483510000000    -0.15188    
N127     N      0.917730000000     0.448290000000     0.793810000000    -0.151687   
N128     N      0.851220000000     0.505790000000     0.703310000000    -0.149677   
O1       O      0.058590000000     0.387120000000     0.314090000000    -0.243946   
O2       O      0.950910000000     0.405230000000     0.864170000000    -0.253174   
O3       O      0.952750000000     0.402010000000     0.313130000000    -0.254422   
O4       O      0.028480000000     0.487590000000     0.851980000000    -0.241307   
O5       O      0.075110000000     0.453700000000     0.834480000000    -0.243507   
O6       O      0.962300000000     0.466550000000     0.818920000000    -0.250229   
O7       O      0.027530000000     0.337750000000     0.834790000000    -0.246831   
O8       O      0.016230000000     0.390030000000     0.871680000000    -0.25134    
O9       O      0.117770000000     0.362010000000     0.070620000000    -0.247038   
O10      O      0.994700000000     0.399610000000     0.105110000000    -0.248981   
O11      O      0.048740000000     0.405930000000     0.044070000000    -0.253023   
O12      O      0.093540000000     0.418610000000     0.102970000000    -0.249377   
O13      O      0.062880000000     0.465550000000     0.084060000000    -0.248166   
O14      O      0.985150000000     0.401080000000     0.055880000000    -0.249964   
O15      O      0.071240000000     0.310580000000     0.074550000000    -0.241249   
O16      O      0.001300000000     0.332710000000     0.095310000000    -0.240711   
O17      O      0.839070000000     0.625080000000     0.922120000000    -0.244939   
O18      O      0.859110000000     0.589310000000     0.862710000000    -0.24577    
O19      O      0.866560000000     0.535370000000     0.922670000000    -0.244403   
O20      O      0.926130000000     0.654060000000     0.902840000000    -0.252436   
O21      O      0.950780000000     0.608070000000     0.881890000000    -0.245176   
O22      O      0.931810000000     0.538790000000     0.912440000000    -0.248573   
O23      O      0.816250000000     0.632120000000     0.892730000000    -0.248648   
O24      O      0.861140000000     0.525360000000     0.876060000000    -0.247778   
O25      O      0.849930000000     0.566470000000     0.180630000000    -0.253793   
O26      O      0.908990000000     0.575010000000     0.139970000000    -0.250463   
O27      O      0.755020000000     0.567710000000     0.156900000000    -0.247204   
O28      O      0.835800000000     0.496150000000     0.124210000000    -0.253309   
O29      O      0.820600000000     0.559500000000     0.112180000000    -0.254378   
O30      O      0.782270000000     0.622300000000     0.141390000000    -0.242014   
O31      O      0.835520000000     0.500500000000     0.171340000000    -0.248367   
O32      O      0.869710000000     0.631100000000     0.146920000000    -0.242546   
O33      O      0.858030000000     0.288890000000     0.006680000000    -0.243695   
O34      O      0.945520000000     0.210790000000     0.043260000000    -0.243727   
O35      O      0.810110000000     0.186900000000     0.037240000000    -0.247242   
O36      O      0.856500000000     0.229260000000     0.066090000000    -0.248305   
O37      O      0.863030000000     0.294950000000     0.055020000000    -0.253618   
O38      O      0.821420000000     0.206020000000     0.007600000000    -0.243537   
O39      O      0.924620000000     0.274030000000     0.011810000000    -0.248116   
O40      O      0.913810000000     0.164130000000     0.024720000000    -0.251305   
O41      O      0.874720000000     0.265170000000     0.794000000000    -0.247686   
O42      O      0.788640000000     0.194720000000     0.259600000000    -0.241204   
O43      O      0.937420000000     0.194670000000     0.771860000000    -0.247795   
O44      O      0.875480000000     0.278550000000     0.240700000000    -0.252824   
O45      O      0.880350000000     0.213170000000     0.229170000000    -0.253584   
O46      O      0.896650000000     0.166480000000     0.287400000000    -0.247983   
O47      O      0.812030000000     0.261240000000     0.282040000000    -0.242197   
O48      O      0.835590000000     0.142950000000     0.258430000000    -0.245749   
O49      O      0.702900000000     0.366840000000     0.922490000000    -0.252908   
O50      O      0.685300000000     0.302220000000     0.956340000000    -0.249178   
O51      O      0.632500000000     0.405660000000     0.957450000000    -0.249315   
O52      O      0.747670000000     0.436990000000     0.974580000000    -0.24633    
O53      O      0.763950000000     0.370630000000     0.982470000000    -0.246252   
O54      O      0.680360000000     0.454350000000     0.951120000000    -0.24472    
O55      O      0.767490000000     0.371550000000     0.933220000000    -0.258069   
O56      O      0.678430000000     0.335640000000     0.983760000000    -0.247157   
O57      O      0.742090000000     0.413460000000     0.190510000000    -0.245778   
O58      O      0.656370000000     0.347020000000     0.237710000000    -0.242614   
O59      O      0.654290000000     0.450930000000     0.192160000000    -0.243669   
O60      O      0.724210000000     0.460270000000     0.234810000000    -0.25158    
O61      O      0.728560000000     0.395070000000     0.246700000000    -0.244006   
O62      O      0.630250000000     0.456370000000     0.221450000000    -0.250032   
O63      O      0.730780000000     0.346680000000     0.199200000000    -0.250866   
O64      O      0.630310000000     0.350170000000     0.208730000000    -0.249963   
O65      O      0.434760000000     0.687900000000     0.911410000000    -0.241631   
O66      O      0.347180000000     0.768640000000     0.883550000000    -0.247129   
O67      O      0.345950000000     0.709730000000     0.944100000000    -0.253427   
O68      O      0.326180000000     0.664230000000     0.885260000000    -0.249355   
O69      O      0.282480000000     0.696820000000     0.904780000000    -0.248346   
O70      O      0.349860000000     0.774950000000     0.932360000000    -0.253587   
O71      O      0.386350000000     0.638990000000     0.916660000000    -0.245784   
O72      O      0.413000000000     0.756920000000     0.891410000000    -0.241778   
O73      O      0.397840000000     0.693350000000     0.172130000000    -0.245398   
O74      O      0.376900000000     0.725450000000     0.112320000000    -0.247804   
O75      O      0.304850000000     0.772300000000     0.165700000000    -0.249354   
O76      O      0.316400000000     0.660930000000     0.151120000000    -0.25056    
O77      O      0.285640000000     0.709570000000     0.133260000000    -0.244417   
O78      O      0.371060000000     0.788270000000     0.170990000000    -0.246389   
O79      O      0.426920000000     0.694380000000     0.143770000000    -0.247652   
O80      O      0.367230000000     0.791270000000     0.122900000000    -0.253369   
O81      O      0.575130000000     0.952450000000     0.988990000000    -0.245823   
O82      O      0.497120000000     0.898120000000     0.933630000000    -0.244279   
O83      O      0.482330000000     0.916350000000     0.988610000000    -0.245545   
O84      O      0.595850000000     0.855430000000     0.969760000000    -0.249262   
O85      O      0.577410000000     0.864640000000     0.939860000000    -0.245435   
O86      O      0.497870000000     0.850560000000     0.979680000000    -0.250523   
O87      O      0.585140000000     0.973580000000     0.959460000000    -0.249668   
O88      O      0.497940000000     0.964070000000     0.944960000000    -0.247917   
O89      O      0.460320000000     0.871540000000     0.194000000000    -0.248972   
O90      O      0.540910000000     0.956420000000     0.225640000000    -0.242584   
O91      O      0.559560000000     0.849360000000     0.194060000000    -0.249046   
O92      O      0.456530000000     0.871360000000     0.243830000000    -0.258894   
O93      O      0.520950000000     0.859660000000     0.253640000000    -0.253928   
O94      O      0.530540000000     0.801930000000     0.213220000000    -0.247503   
O95      O      0.475480000000     0.937990000000     0.202160000000    -0.245132   
O96      O      0.589270000000     0.906040000000     0.224330000000    -0.246017   
O97      O      0.367930000000     0.061210000000     0.996170000000    -0.252407   
O98      O      0.362730000000     0.131090000000     0.029950000000    -0.245279   
O99      O      0.463820000000     0.064350000000     0.009880000000    -0.245104   
O100     O      0.392630000000     0.992760000000     0.051210000000    -0.25339    
O101     O      0.408360000000     0.056300000000     0.062890000000    -0.252313   
O102     O      0.457880000000     0.106190000000     0.034840000000    -0.244026   
O103     O      0.387480000000     0.995960000000     0.004830000000    -0.244145   
O104     O      0.320290000000     0.076640000000     0.035400000000    -0.250631   
O105     O      0.358400000000     0.086190000000     0.813100000000    -0.247311   
O106     O      0.379270000000     0.127630000000     0.252530000000    -0.245126   
O107     O      0.268550000000     0.103250000000     0.792990000000    -0.244396   
O108     O      0.288880000000     0.036040000000     0.260990000000    -0.249014   
O109     O      0.354270000000     0.033500000000     0.250970000000    -0.246859   
O110     O      0.296470000000     0.153690000000     0.271410000000    -0.250738   
O111     O      0.358940000000     0.024220000000     0.298180000000    -0.24836    
O112     O      0.408880000000     0.121150000000     0.280680000000    -0.249652   
O113     O      0.145220000000     0.953480000000     0.339740000000    -0.24475    
O114     O      0.272980000000     0.898320000000     0.861910000000    -0.253927   
O115     O      0.207570000000     0.889370000000     0.304450000000    -0.251034   
O116     O      0.195070000000     0.836960000000     0.840740000000    -0.246804   
O117     O      0.168490000000     0.882840000000     0.861360000000    -0.244599   
O118     O      0.272620000000     0.905280000000     0.811870000000    -0.252605   
O119     O      0.193440000000     0.985890000000     0.823370000000    -0.241153   
O120     O      0.258530000000     0.966460000000     0.856940000000    -0.250614   
O121     O      0.177940000000     0.901320000000     0.128520000000    -0.253078   
O122     O      0.134480000000     0.916350000000     0.069660000000    -0.249004   
O123     O      0.157000000000     0.806990000000     0.096770000000    -0.241822   
O124     O      0.228770000000     0.829960000000     0.077910000000    -0.24128    
O125     O      0.233400000000     0.896550000000     0.067490000000    -0.24931    
O126     O      0.110930000000     0.858270000000     0.102130000000    -0.247236   
O127     O      0.241970000000     0.898340000000     0.117070000000    -0.250773   
O128     O      0.166100000000     0.962450000000     0.088610000000    -0.248522   
O129     O      0.056970000000     0.384330000000     0.815340000000    -0.243617   
O130     O      0.953210000000     0.406680000000     0.363430000000    -0.252711   
O131     O      0.950890000000     0.398030000000     0.813530000000    -0.253693   
O132     O      0.031980000000     0.487890000000     0.353020000000    -0.242322   
O133     O      0.077680000000     0.456320000000     0.334210000000    -0.243853   
O134     O      0.965860000000     0.470190000000     0.318600000000    -0.251251   
O135     O      0.029550000000     0.340270000000     0.333530000000    -0.246878   
O136     O      0.018170000000     0.388550000000     0.370340000000    -0.250839   
O137     O      0.100180000000     0.366200000000     0.563780000000    -0.249352   
O138     O      0.989250000000     0.398300000000     0.609880000000    -0.249822   
O139     O      0.001650000000     0.379030000000     0.548490000000    -0.248538   
O140     O      0.088970000000     0.415950000000     0.603500000000    -0.250792   
O141     O      0.063880000000     0.462760000000     0.582920000000    -0.246295   
O142     O      0.983300000000     0.436930000000     0.564260000000    -0.249094   
O143     O      0.063530000000     0.313910000000     0.576840000000    -0.239662   
O144     O      0.993650000000     0.332420000000     0.598840000000    -0.24398    
O145     O      0.806860000000     0.609720000000     0.408440000000    -0.248476   
O146     O      0.864080000000     0.595920000000     0.363700000000    -0.250816   
O147     O      0.879320000000     0.586850000000     0.433070000000    -0.249063   
O148     O      0.930650000000     0.657400000000     0.405740000000    -0.248703   
O149     O      0.955660000000     0.608040000000     0.386460000000    -0.248777   
O150     O      0.897540000000     0.529610000000     0.416570000000    -0.244008   
O151     O      0.838270000000     0.663670000000     0.394010000000    -0.24553    
O152     O      0.867620000000     0.532240000000     0.377260000000    -0.240932   
O153     O      0.848350000000     0.559200000000     0.680230000000    -0.253703   
O154     O      0.908310000000     0.566560000000     0.639330000000    -0.249567   
O155     O      0.754120000000     0.561220000000     0.656670000000    -0.246257   
O156     O      0.834660000000     0.488370000000     0.623520000000    -0.252628   
O157     O      0.815700000000     0.551070000000     0.611970000000    -0.254485   
O158     O      0.782490000000     0.615780000000     0.641540000000    -0.240756   
O159     O      0.834490000000     0.493040000000     0.671090000000    -0.248022   
O160     O      0.868910000000     0.623070000000     0.645320000000    -0.242482   
O161     O      0.862730000000     0.275460000000     0.504730000000    -0.240519   
O162     O      0.951570000000     0.202840000000     0.543220000000    -0.243195   
O163     O      0.832700000000     0.157530000000     0.533800000000    -0.245026   
O164     O      0.858950000000     0.219590000000     0.564780000000    -0.252368   
O165     O      0.869730000000     0.284700000000     0.553870000000    -0.25325    
O166     O      0.816100000000     0.203040000000     0.511110000000    -0.243259   
O167     O      0.929350000000     0.259360000000     0.508930000000    -0.248416   
O168     O      0.924630000000     0.157680000000     0.522450000000    -0.248228   
O169     O      0.878060000000     0.270820000000     0.290050000000    -0.247891   
O170     O      0.784760000000     0.188270000000     0.764540000000    -0.241994   
O171     O      0.941170000000     0.199150000000     0.268300000000    -0.247683   
O172     O      0.870220000000     0.272740000000     0.744870000000    -0.253252   
O173     O      0.875980000000     0.207490000000     0.733260000000    -0.253472   
O174     O      0.894250000000     0.162200000000     0.791670000000    -0.248028   
O175     O      0.808600000000     0.257100000000     0.785780000000    -0.242123   
O176     O      0.832140000000     0.137040000000     0.762670000000    -0.246418   
O177     O      0.706050000000     0.357930000000     0.421050000000    -0.253147   
O178     O      0.690200000000     0.298760000000     0.458610000000    -0.248215   
O179     O      0.637360000000     0.403350000000     0.452570000000    -0.248025   
O180     O      0.751200000000     0.433280000000     0.472890000000    -0.245817   
O181     O      0.768430000000     0.366870000000     0.480290000000    -0.247789   
O182     O      0.686320000000     0.452150000000     0.448400000000    -0.24338    
O183     O      0.770620000000     0.366550000000     0.431260000000    -0.257624   
O184     O      0.672780000000     0.342110000000     0.482080000000    -0.248467   
O185     O      0.742240000000     0.405820000000     0.688160000000    -0.245279   
O186     O      0.658170000000     0.337590000000     0.735090000000    -0.24207    
O187     O      0.654160000000     0.443310000000     0.689910000000    -0.243245   
O188     O      0.722800000000     0.453110000000     0.732500000000    -0.251444   
O189     O      0.728460000000     0.387950000000     0.744320000000    -0.244185   
O190     O      0.629910000000     0.447740000000     0.719220000000    -0.250237   
O191     O      0.730460000000     0.339040000000     0.696720000000    -0.252022   
O192     O      0.628890000000     0.343450000000     0.706830000000    -0.249898   
O193     O      0.439810000000     0.690000000000     0.412210000000    -0.241611   
O194     O      0.349990000000     0.768690000000     0.384160000000    -0.247582   
O195     O      0.351300000000     0.708900000000     0.444790000000    -0.253321   
O196     O      0.330150000000     0.665420000000     0.385770000000    -0.248616   
O197     O      0.287140000000     0.695860000000     0.406270000000    -0.248449   
O198     O      0.353380000000     0.774550000000     0.433410000000    -0.252825   
O199     O      0.392200000000     0.639420000000     0.415490000000    -0.24616    
O200     O      0.416100000000     0.759000000000     0.392060000000    -0.242042   
O201     O      0.400200000000     0.689010000000     0.672100000000    -0.245558   
O202     O      0.380090000000     0.723180000000     0.612600000000    -0.24777    
O203     O      0.306360000000     0.766980000000     0.665970000000    -0.249287   
O204     O      0.318980000000     0.656850000000     0.650920000000    -0.250426   
O205     O      0.289260000000     0.705040000000     0.632460000000    -0.2443     
O206     O      0.372270000000     0.784320000000     0.671230000000    -0.245541   
O207     O      0.429440000000     0.691180000000     0.643780000000    -0.247865   
O208     O      0.369730000000     0.788530000000     0.623620000000    -0.252449   
O209     O      0.583810000000     0.935410000000     0.486310000000    -0.250689   
O210     O      0.492810000000     0.897480000000     0.431080000000    -0.251258   
O211     O      0.480860000000     0.916860000000     0.488060000000    -0.246752   
O212     O      0.565100000000     0.835310000000     0.457830000000    -0.241337   
O213     O      0.593040000000     0.886490000000     0.440320000000    -0.251314   
O214     O      0.495030000000     0.850870000000     0.478870000000    -0.24359    
O215     O      0.570760000000     0.978790000000     0.462300000000    -0.246276   
O216     O      0.488790000000     0.961880000000     0.443810000000    -0.248026   
O217     O      0.459630000000     0.868620000000     0.692880000000    -0.248428   
O218     O      0.539450000000     0.951570000000     0.725850000000    -0.242713   
O219     O      0.559460000000     0.845070000000     0.693650000000    -0.248353   
O220     O      0.455270000000     0.866780000000     0.743130000000    -0.259433   
O221     O      0.519540000000     0.853980000000     0.752840000000    -0.25393    
O222     O      0.528890000000     0.797480000000     0.712230000000    -0.247009   
O223     O      0.474870000000     0.934530000000     0.701790000000    -0.245291   
O224     O      0.588070000000     0.901570000000     0.723860000000    -0.245759   
O225     O      0.361900000000     0.067780000000     0.497050000000    -0.252656   
O226     O      0.351130000000     0.136330000000     0.528240000000    -0.243245   
O227     O      0.460640000000     0.069470000000     0.515220000000    -0.247042   
O228     O      0.384920000000     0.999680000000     0.552380000000    -0.251204   
O229     O      0.399140000000     0.063090000000     0.564590000000    -0.252097   
O230     O      0.443860000000     0.120140000000     0.535590000000    -0.244156   
O231     O      0.381020000000     0.002770000000     0.506010000000    -0.245322   
O232     O      0.312690000000     0.082270000000     0.538460000000    -0.250585   
O233     O      0.355610000000     0.088200000000     0.311530000000    -0.24696    
O234     O      0.377100000000     0.125550000000     0.754060000000    -0.244767   
O235     O      0.268720000000     0.106280000000     0.290880000000    -0.244656   
O236     O      0.288400000000     0.033170000000     0.762780000000    -0.248605   
O237     O      0.353760000000     0.030680000000     0.752770000000    -0.247923   
O238     O      0.296930000000     0.151320000000     0.774050000000    -0.250292   
O239     O      0.358530000000     0.021450000000     0.800430000000    -0.247337   
O240     O      0.409880000000     0.116240000000     0.781330000000    -0.249062   
O241     O      0.147100000000     0.951530000000     0.840820000000    -0.244871   
O242     O      0.271160000000     0.901950000000     0.362440000000    -0.253828   
O243     O      0.207970000000     0.887410000000     0.804310000000    -0.250774   
O244     O      0.194620000000     0.838710000000     0.341220000000    -0.246878   
O245     O      0.166920000000     0.884880000000     0.361380000000    -0.245284   
O246     O      0.272190000000     0.906670000000     0.312350000000    -0.253061   
O247     O      0.192880000000     0.987850000000     0.323040000000    -0.241379   
O248     O      0.255290000000     0.969710000000     0.357370000000    -0.25068    
O249     O      0.179600000000     0.892550000000     0.630480000000    -0.252802   
O250     O      0.139090000000     0.909160000000     0.571020000000    -0.24852    
O251     O      0.159820000000     0.798300000000     0.598690000000    -0.242412   
O252     O      0.232380000000     0.822760000000     0.579560000000    -0.241528   
O253     O      0.235900000000     0.889730000000     0.569570000000    -0.249526   
O254     O      0.112820000000     0.849350000000     0.602560000000    -0.247954   
O255     O      0.243860000000     0.890050000000     0.619260000000    -0.250475   
O256     O      0.167520000000     0.954050000000     0.591530000000    -0.248252   


