data_structure

_audit_creation_method RASPA-1.0
_audit_creation_date 2023-5-23
_audit_author_name 'Poobodin Mano'

_cell_length_a    66.1228
_cell_length_b    66.4455
_cell_length_c    66.3905
_cell_angle_alpha 90
_cell_angle_beta  90.0002
_cell_angle_gamma 90.0001
_cell_volume      291691

_symmetry_cell_setting          triclinic
_symmetry_space_group_name_Hall 'P 1'
_symmetry_space_group_name_H-M  'P 1'
_symmetry_Int_Tables_number     1

_symmetry_equiv_pos_as_xyz 'x,y,z'

loop_
_atom_site_label
_atom_site_type_symbol
_atom_site_fract_x
_atom_site_fract_y
_atom_site_fract_z
_atom_site_charge
C1       C      0.113780000000     0.276630000000     0.899820000000     0.340849   
C2       C      0.118220000000     0.330240000000     0.953900000000     0.340955   
C3       C      0.154190000000     0.331600000000     0.897650000000     0.342429   
C4       C      0.076790000000     0.332290000000     0.899290000000     0.342374   
C5       C      0.194920000000     0.376960000000     0.123070000000     0.34112    
C6       C      0.141270000000     0.430770000000     0.128720000000     0.340938   
C7       C      0.137840000000     0.376130000000     0.087770000000     0.342852   
C8       C      0.140280000000     0.374380000000     0.164600000000     0.342806   
C9       C      0.117370000000     0.775430000000     0.101820000000     0.340927   
C10      C      0.120760000000     0.829450000000     0.047920000000     0.340872   
C11      C      0.080330000000     0.830940000000     0.102940000000     0.342654   
C12      C      0.157730000000     0.830640000000     0.103630000000     0.342683   
C13      C      0.041720000000     0.607120000000     0.149390000000     0.341174   
C14      C      0.095500000000     0.601110000000     0.203150000000     0.341146   
C15      C      0.096030000000     0.565070000000     0.146760000000     0.342899   
C16      C      0.099080000000     0.641810000000     0.148390000000     0.342815   
C17      C      0.094370000000     0.357080000000     0.298860000000     0.341373   
C18      C      0.040630000000     0.351700000000     0.352860000000     0.34117    
C19      C      0.097490000000     0.316410000000     0.353650000000     0.342698   
C20      C      0.095280000000     0.393250000000     0.355070000000     0.342644   
C21      C      0.365140000000     0.330300000000     0.048940000000     0.340802   
C22      C      0.371020000000     0.276390000000     0.102820000000     0.340954   
C23      C      0.406820000000     0.332680000000     0.103200000000     0.342552   
C24      C      0.329480000000     0.330650000000     0.105310000000     0.342397   
C25      C      0.870700000000     0.681880000000     0.102440000000     0.341192   
C26      C      0.865750000000     0.628230000000     0.048490000000     0.34079    
C27      C      0.907220000000     0.625920000000     0.103070000000     0.342522   
C28      C      0.829890000000     0.627090000000     0.104850000000     0.342857   
C29      C      0.694410000000     0.079950000000     0.881030000000     0.341236   
C30      C      0.640520000000     0.026190000000     0.874120000000     0.341291   
C31      C      0.637130000000     0.080510000000     0.915400000000     0.342466   
C32      C      0.640480000000     0.082920000000     0.838650000000     0.342765   
C33      C      0.595700000000     0.101500000000     0.704220000000     0.34103    
C34      C      0.541990000000     0.107250000000     0.650520000000     0.340836   
C35      C      0.599030000000     0.142180000000     0.649280000000     0.342929   
C36      C      0.596430000000     0.065370000000     0.647840000000     0.342737   
C37      C      0.370760000000     0.182480000000     0.603910000000     0.340969   
C38      C      0.366100000000     0.128790000000     0.550030000000     0.341104   
C39      C      0.407440000000     0.126490000000     0.604610000000     0.342539   
C40      C      0.330200000000     0.127530000000     0.606470000000     0.342755   
C41      C      0.093870000000     0.857200000000     0.702700000000     0.341207   
C42      C      0.040480000000     0.851330000000     0.648710000000     0.341072   
C43      C      0.095370000000     0.892590000000     0.645910000000     0.342628   
C44      C      0.097310000000     0.815860000000     0.648120000000     0.342877   
C45      C      0.641170000000     0.930940000000     0.629420000000     0.341068   
C46      C      0.694580000000     0.876850000000     0.623940000000     0.340889   
C47      C      0.639640000000     0.874410000000     0.665120000000     0.342521   
C48      C      0.637950000000     0.876310000000     0.588260000000     0.342735   
C49      C      0.538770000000     0.851560000000     0.852810000000     0.340816   
C50      C      0.592870000000     0.856290000000     0.798960000000     0.34098    
C51      C      0.593690000000     0.892520000000     0.855050000000     0.342606   
C52      C      0.595160000000     0.815600000000     0.853840000000     0.342452   
C53      C      0.946060000000     0.850100000000     0.149880000000     0.341084   
C54      C      0.892110000000     0.856570000000     0.203590000000     0.340899   
C55      C      0.891990000000     0.892290000000     0.147080000000     0.342709   
C56      C      0.888770000000     0.815530000000     0.149080000000     0.342578   
C57      C      0.540990000000     0.607200000000     0.353620000000     0.340849   
C58      C      0.594780000000     0.600990000000     0.299670000000     0.340993   
C59      C      0.598060000000     0.642120000000     0.354120000000     0.342364   
C60      C      0.595290000000     0.565290000000     0.356160000000     0.342683   
C61      C      0.694740000000     0.377270000000     0.379590000000     0.340798   
C62      C      0.641000000000     0.431110000000     0.373730000000     0.341013   
C63      C      0.640420000000     0.374860000000     0.337550000000     0.342821   
C64      C      0.637440000000     0.376370000000     0.414380000000     0.342346   
C65      C      0.641850000000     0.526510000000     0.129240000000     0.341082   
C66      C      0.695630000000     0.580420000000     0.124000000000     0.340854   
C67      C      0.638740000000     0.581380000000     0.088680000000     0.342873   
C68      C      0.640960000000     0.582600000000     0.165580000000     0.342773   
C69      C      0.541390000000     0.350800000000     0.149370000000     0.340914   
C70      C      0.595080000000     0.356690000000     0.203170000000     0.341093   
C71      C      0.598530000000     0.315610000000     0.148590000000     0.342547   
C72      C      0.595990000000     0.392370000000     0.146620000000     0.342903   
C73      C      0.790760000000     0.877510000000     0.378750000000     0.340835   
C74      C      0.844730000000     0.931400000000     0.373780000000     0.341051   
C75      C      0.847290000000     0.876630000000     0.414450000000     0.342737   
C76      C      0.845540000000     0.875310000000     0.337480000000     0.342606   
C77      C      0.391070000000     0.857350000000     0.299940000000     0.341073   
C78      C      0.444830000000     0.851360000000     0.353660000000     0.341011   
C79      C      0.390520000000     0.893310000000     0.356380000000     0.34284    
C80      C      0.387680000000     0.816520000000     0.354730000000     0.34274    
C81      C      0.615740000000     0.775940000000     0.400500000000     0.341108   
C82      C      0.620640000000     0.829720000000     0.454310000000     0.341025   
C83      C      0.656560000000     0.830730000000     0.397890000000     0.342783   
C84      C      0.579320000000     0.832030000000     0.399740000000     0.342694   
C85      C      0.443840000000     0.351380000000     0.650770000000     0.341185   
C86      C      0.390010000000     0.357800000000     0.704770000000     0.341083   
C87      C      0.389610000000     0.393240000000     0.648140000000     0.342478   
C88      C      0.386920000000     0.316390000000     0.650500000000     0.34271    
C89      C      0.618410000000     0.329790000000     0.548020000000     0.340805   
C90      C      0.614560000000     0.275890000000     0.601970000000     0.340932   
C91      C      0.655140000000     0.330780000000     0.603770000000     0.342663   
C92      C      0.577770000000     0.331680000000     0.603120000000     0.342661   
C93      C      0.114750000000     0.681930000000     0.601890000000     0.340919   
C94      C      0.119620000000     0.628060000000     0.548160000000     0.340811   
C95      C      0.155880000000     0.627300000000     0.604360000000     0.342718   
C96      C      0.078610000000     0.625680000000     0.602970000000     0.34239    
C97      C      0.141570000000     0.527200000000     0.373350000000     0.340956   
C98      C      0.195400000000     0.581070000000     0.379530000000     0.340986   
C99      C      0.141160000000     0.583530000000     0.337470000000     0.342669   
C100     C      0.138250000000     0.581670000000     0.414360000000     0.342594   
C101     C      0.365950000000     0.628940000000     0.455500000000     0.340967   
C102     C      0.370280000000     0.682840000000     0.401610000000     0.341063   
C103     C      0.406860000000     0.626940000000     0.400630000000     0.342583   
C104     C      0.329520000000     0.627980000000     0.399480000000     0.34252    
C105     C      0.344050000000     0.527360000000     0.629890000000     0.340765   
C106     C      0.290270000000     0.581090000000     0.623920000000     0.341007   
C107     C      0.344510000000     0.583640000000     0.666040000000     0.342741   
C108     C      0.347520000000     0.582140000000     0.589170000000     0.342602   
C109     C      0.138940000000     0.932040000000     0.873670000000     0.340815   
C110     C      0.192720000000     0.878360000000     0.879370000000     0.340635   
C111     C      0.135650000000     0.877070000000     0.914180000000     0.342703   
C112     C      0.138400000000     0.875840000000     0.837300000000     0.34291    
C113     C      0.288460000000     0.378690000000     0.879860000000     0.340895   
C114     C      0.342250000000     0.432670000000     0.875140000000     0.340964   
C115     C      0.345100000000     0.377640000000     0.915570000000     0.342804   
C116     C      0.343370000000     0.376700000000     0.838660000000     0.343015   
C117     C      0.368280000000     0.777480000000     0.901080000000     0.340786   
C118     C      0.363910000000     0.831400000000     0.954740000000     0.341232   
C119     C      0.404450000000     0.833710000000     0.899740000000     0.342634   
C120     C      0.327170000000     0.832190000000     0.898770000000     0.34272    
C121     C      0.389310000000     0.602200000000     0.800550000000     0.340897   
C122     C      0.442830000000     0.608040000000     0.854490000000     0.341005   
C123     C      0.385930000000     0.643490000000     0.855090000000     0.342718   
C124     C      0.388110000000     0.566730000000     0.857290000000     0.343118   
C125     C      0.868300000000     0.183120000000     0.901440000000     0.340929   
C126     C      0.866030000000     0.129050000000     0.955440000000     0.340881   
C127     C      0.828370000000     0.127780000000     0.900320000000     0.342529   
C128     C      0.905910000000     0.128010000000     0.900070000000     0.342551   
C129     C      0.613320000000     0.682090000000     0.901220000000     0.340992   
C130     C      0.619000000000     0.628290000000     0.955150000000     0.340794   
C131     C      0.577370000000     0.625900000000     0.900850000000     0.342401   
C132     C      0.654660000000     0.627720000000     0.898610000000     0.34281    
C133     C      0.869890000000     0.775670000000     0.602070000000     0.341055   
C134     C      0.864690000000     0.829490000000     0.548200000000     0.341023   
C135     C      0.828800000000     0.830210000000     0.604630000000     0.342519   
C136     C      0.906050000000     0.831900000000     0.602620000000     0.342421   
C137     C      0.944380000000     0.606580000000     0.649790000000     0.34084    
C138     C      0.890430000000     0.601220000000     0.703700000000     0.341133   
C139     C      0.887650000000     0.642010000000     0.649010000000     0.342762   
C140     C      0.889750000000     0.565150000000     0.647440000000     0.342627   
C141     C      0.842670000000     0.527700000000     0.873700000000     0.341146   
C142     C      0.789060000000     0.581590000000     0.879250000000     0.340648   
C143     C      0.846040000000     0.582350000000     0.914620000000     0.342616   
C144     C      0.843830000000     0.584020000000     0.837750000000     0.342736   
C145     C      0.942210000000     0.351170000000     0.853160000000     0.340645   
C146     C      0.888550000000     0.357270000000     0.799460000000     0.34104    
C147     C      0.884720000000     0.316730000000     0.854390000000     0.34293    
C148     C      0.887870000000     0.393360000000     0.855910000000     0.342851   
C149     C      0.865490000000     0.329980000000     0.454460000000     0.341075   
C150     C      0.870350000000     0.276010000000     0.400830000000     0.340957   
C151     C      0.829110000000     0.330660000000     0.398410000000     0.342912   
C152     C      0.906420000000     0.332240000000     0.399640000000     0.342611   
C153     C      0.789440000000     0.377590000000     0.622740000000     0.341042   
C154     C      0.843380000000     0.431280000000     0.628970000000     0.341326   
C155     C      0.843520000000     0.374970000000     0.664960000000     0.34264    
C156     C      0.846750000000     0.376700000000     0.588110000000     0.342552   
C157     C      0.291550000000     0.878460000000     0.123640000000     0.341102   
C158     C      0.345400000000     0.932430000000     0.130120000000     0.340849   
C159     C      0.345710000000     0.875860000000     0.165660000000     0.342238   
C160     C      0.348480000000     0.878170000000     0.088750000000     0.342335   
C161     C      0.946140000000     0.106760000000     0.354180000000     0.340871   
C162     C      0.892550000000     0.101040000000     0.300330000000     0.340764   
C163     C      0.891330000000     0.065340000000     0.356840000000     0.342849   
C164     C      0.889180000000     0.142110000000     0.354970000000     0.342802   
C165     C      0.039920000000     0.108620000000     0.852350000000     0.341188   
C166     C      0.093840000000     0.101560000000     0.798600000000     0.3413     
C167     C      0.097270000000     0.142940000000     0.852900000000     0.342502   
C168     C      0.093850000000     0.066280000000     0.855440000000     0.342638   
C169     C      0.122170000000     0.128960000000     0.454250000000     0.340932   
C170     C      0.116500000000     0.182860000000     0.400460000000     0.34126    
C171     C      0.157890000000     0.128480000000     0.397870000000     0.342618   
C172     C      0.080640000000     0.126400000000     0.399950000000     0.342652   
C173     C      0.195980000000     0.080380000000     0.624150000000     0.340939   
C174     C      0.141960000000     0.026420000000     0.628350000000     0.34087    
C175     C      0.140910000000     0.082270000000     0.664910000000     0.342741   
C176     C      0.139840000000     0.081370000000     0.587870000000     0.342657   
C177     C      0.846860000000     0.026650000000     0.129540000000     0.341267   
C178     C      0.793210000000     0.080400000000     0.123640000000     0.3412     
C179     C      0.847520000000     0.082940000000     0.165850000000     0.34283    
C180     C      0.850570000000     0.081610000000     0.089110000000     0.342769   
C181     C      0.621710000000     0.127670000000     0.049220000000     0.340852   
C182     C      0.617600000000     0.181740000000     0.102840000000     0.340932   
C183     C      0.581390000000     0.125630000000     0.104250000000     0.342664   
C184     C      0.658780000000     0.126990000000     0.104880000000     0.342632   
C185     C      0.345770000000     0.027720000000     0.374850000000     0.34079    
C186     C      0.292280000000     0.081760000000     0.380220000000     0.341018   
C187     C      0.348900000000     0.082350000000     0.416010000000     0.342989   
C188     C      0.347130000000     0.084250000000     0.339120000000     0.342595   
C189     C      0.447070000000     0.107350000000     0.151130000000     0.340831   
C190     C      0.393220000000     0.102410000000     0.205040000000     0.341016   
C191     C      0.390440000000     0.143000000000     0.150070000000     0.342636   
C192     C      0.392160000000     0.066160000000     0.148910000000     0.342878   
C193     C      0.399760000000     0.104080000000     0.242160000000    -0.0276832  
C194     C      0.340330000000     0.089290000000     0.302730000000    -0.0282329  
C195     C      0.374010000000     0.096390000000     0.315550000000    -0.0277438  
C196     C      0.373610000000     0.097910000000     0.293200000000     0.0179796  
C197     C      0.354340000000     0.093950000000     0.286000000000     0.019326   
C198     C      0.350100000000     0.093580000000     0.265360000000    -0.0660558  
C199     C      0.365750000000     0.097360000000     0.229970000000    -0.0282011  
C200     C      0.389800000000     0.101620000000     0.280020000000    -0.0646304  
C201     C      0.366190000000     0.097450000000     0.252240000000     0.0193509  
C202     C      0.385540000000     0.101310000000     0.259300000000     0.0180023  
C203     C      0.557900000000     0.113480000000     0.131180000000    -0.0278657  
C204     C      0.471890000000     0.112800000000     0.123670000000    -0.0281863  
C205     C      0.484390000000     0.105730000000     0.157380000000    -0.0276866  
C206     C      0.501490000000     0.108650000000     0.143110000000     0.0179439  
C207     C      0.494260000000     0.112720000000     0.123940000000     0.0193449  
C208     C      0.507300000000     0.116730000000     0.107850000000    -0.0660191  
C209     C      0.544740000000     0.121000000000     0.097830000000    -0.0282134  
C210     C      0.522330000000     0.108240000000     0.147170000000    -0.0644929  
C211     C      0.528050000000     0.116290000000     0.111890000000     0.0193163  
C212     C      0.535440000000     0.112100000000     0.130970000000     0.0179526  
C213     C      0.768410000000     0.107590000000     0.116940000000    -0.0281619  
C214     C      0.682380000000     0.100400000000     0.117490000000    -0.0276511  
C215     C      0.695550000000     0.133360000000     0.108560000000    -0.0281407  
C216     C      0.712250000000     0.119420000000     0.113530000000     0.0193012  
C217     C      0.704850000000     0.100550000000     0.118540000000     0.0179571  
C218     C      0.717950000000     0.084470000000     0.122860000000    -0.0646385  
C219     C      0.755880000000     0.074250000000     0.125430000000    -0.0277141  
C220     C      0.733020000000     0.123360000000     0.112700000000    -0.0660982  
C221     C      0.738790000000     0.088430000000     0.122050000000     0.0180248  
C222     C      0.746050000000     0.107390000000     0.117160000000     0.0193341  
C223     C      0.120190000000     0.134910000000     0.491460000000    -0.0275129  
C224     C      0.135790000000     0.075160000000     0.551260000000    -0.0281764  
C225     C      0.127440000000     0.108220000000     0.564530000000    -0.0276975  
C226     C      0.126380000000     0.108200000000     0.542150000000     0.0179515  
C227     C      0.131050000000     0.089270000000     0.534690000000     0.0193531  
C228     C      0.131890000000     0.085430000000     0.513990000000    -0.066104   
C229     C      0.128110000000     0.101490000000     0.478820000000    -0.0281599  
C230     C      0.122400000000     0.124430000000     0.529190000000    -0.0646087  
C231     C      0.127760000000     0.101560000000     0.501090000000     0.019376   
C232     C      0.123200000000     0.120560000000     0.508400000000     0.0179159  
C233     C      0.194550000000     0.135050000000     0.393520000000    -0.028408   
C234     C      0.254970000000     0.075650000000     0.378090000000    -0.0277071  
C235     C      0.267470000000     0.109160000000     0.385930000000    -0.0280584  
C236     C      0.245100000000     0.108980000000     0.385510000000     0.0192749  
C237     C      0.237880000000     0.089920000000     0.381000000000     0.0180111  
C238     C      0.217040000000     0.085920000000     0.380220000000    -0.0645339  
C239     C      0.181450000000     0.101880000000     0.385270000000    -0.0275985  
C240     C      0.232040000000     0.125020000000     0.389600000000    -0.066077   
C241     C      0.203920000000     0.102070000000     0.384160000000     0.0178865  
C242     C      0.211290000000     0.121050000000     0.388770000000     0.019391   
C243     C      0.087750000000     0.103350000000     0.761410000000    -0.0275392  
C244     C      0.147260000000     0.086270000000     0.701510000000    -0.028296   
C245     C      0.114120000000     0.094960000000     0.688290000000    -0.0276806  
C246     C      0.114250000000     0.096200000000     0.710660000000     0.0179294  
C247     C      0.133220000000     0.091330000000     0.718090000000     0.0194189  
C248     C      0.137160000000     0.090660000000     0.738770000000    -0.0660991  
C249     C      0.121260000000     0.095040000000     0.773980000000    -0.028137   
C250     C      0.098070000000     0.100570000000     0.723650000000    -0.0645288  
C251     C      0.121090000000     0.095160000000     0.751710000000     0.0193885  
C252     C      0.102030000000     0.099940000000     0.744430000000     0.0179157  
C253     C      0.840440000000     0.087400000000     0.202270000000    -0.0282542  
C254     C      0.899270000000     0.102890000000     0.263260000000    -0.0276915  
C255     C      0.865360000000     0.095350000000     0.275240000000    -0.0279822  
C256     C      0.865900000000     0.095590000000     0.252970000000     0.0192606  
C257     C      0.885200000000     0.099920000000     0.246040000000     0.0180376  
C258     C      0.889550000000     0.100500000000     0.225340000000    -0.0646736  
C259     C      0.874040000000     0.095290000000     0.189690000000    -0.027721   
C260     C      0.849960000000     0.091510000000     0.239740000000    -0.0659841  
C261     C      0.873500000000     0.096560000000     0.212050000000     0.0179904  
C262     C      0.854290000000     0.092130000000     0.219130000000     0.0193059  
C263     C      0.044050000000     0.121720000000     0.406730000000    -0.0279822  
C264     C      0.983430000000     0.105120000000     0.347820000000    -0.0281994  
C265     C      0.971070000000     0.112790000000     0.381440000000    -0.0276786  
C266     C      0.993430000000     0.112770000000     0.381080000000     0.0181108  
C267     C      0.000580000000     0.108350000000     0.361950000000     0.0191286  
C268     C      0.021400000000     0.107940000000     0.357780000000    -0.0650595  
C269     C      0.057020000000     0.113620000000     0.373450000000    -0.0279485  
C270     C      0.006550000000     0.117130000000     0.397010000000    -0.0650634  
C271     C      0.034580000000     0.112150000000     0.373820000000     0.0184093  
C272     C      0.027290000000     0.116680000000     0.392860000000     0.0188711  
C273     C      0.372850000000     0.957130000000     0.136110000000    -0.028321   
C274     C      0.365330000000     0.042720000000     0.136480000000    -0.0274778  
C275     C      0.398700000000     0.029660000000     0.144550000000    -0.0286201  
C276     C      0.384650000000     0.013030000000     0.139680000000     0.0205483  
C277     C      0.365560000000     0.020370000000     0.135160000000     0.0173011  
C278     C      0.349360000000     0.007320000000     0.131070000000    -0.0632722  
C279     C      0.339140000000     0.969570000000     0.128450000000    -0.0272318  
C280     C      0.388700000000     0.992370000000     0.140240000000    -0.067354   
C281     C      0.353430000000     0.986580000000     0.131600000000     0.0167324  
C282     C      0.372600000000     0.979390000000     0.136010000000     0.0199216  
C283     C      0.868850000000     0.238920000000     0.407340000000    -0.0275017  
C284     C      0.883930000000     0.178440000000     0.348140000000    -0.0283069  
C285     C      0.876820000000     0.165620000000     0.381690000000    -0.027678   
C286     C      0.875210000000     0.187940000000     0.381280000000     0.0179088  
C287     C      0.879180000000     0.195150000000     0.362090000000     0.0193417  
C288     C      0.879470000000     0.215770000000     0.357870000000    -0.0660868  
C289     C      0.875530000000     0.251120000000     0.373460000000    -0.028243   
C290     C      0.871440000000     0.201100000000     0.397410000000    -0.0645722  
C291     C      0.875540000000     0.228870000000     0.373890000000     0.019343   
C292     C      0.871680000000     0.221800000000     0.393160000000     0.0178945  
C293     C      0.860460000000     0.357510000000     0.479180000000    -0.0280705  
C294     C      0.859310000000     0.349910000000     0.564810000000    -0.0276537  
C295     C      0.852190000000     0.383340000000     0.551740000000    -0.0284438  
C296     C      0.856970000000     0.369290000000     0.535120000000     0.0193943  
C297     C      0.860930000000     0.350160000000     0.542470000000     0.0178947  
C298     C      0.864670000000     0.333950000000     0.529410000000    -0.064643   
C299     C      0.867150000000     0.323750000000     0.491630000000    -0.0276184  
C300     C      0.856630000000     0.373360000000     0.514450000000    -0.066139   
C301     C      0.864390000000     0.338040000000     0.508660000000     0.0179504  
C302     C      0.860540000000     0.357250000000     0.501460000000     0.0192986  
C303     C      0.836410000000     0.370790000000     0.701400000000    -0.0284105  
C304     C      0.895140000000     0.354930000000     0.762400000000    -0.0275004  
C305     C      0.861380000000     0.363120000000     0.774380000000    -0.0281189  
C306     C      0.861860000000     0.362640000000     0.752110000000     0.0193285  
C307     C      0.881060000000     0.357950000000     0.745180000000     0.0179069  
C308     C      0.885360000000     0.357120000000     0.724480000000    -0.0645931  
C309     C      0.869860000000     0.362280000000     0.688820000000    -0.0276747  
C310     C      0.845950000000     0.366850000000     0.738880000000    -0.0661064  
C311     C      0.869350000000     0.361190000000     0.711190000000     0.0179103  
C312     C      0.850210000000     0.365960000000     0.718270000000     0.0193856  
C313     C      0.861310000000     0.417160000000     0.868230000000    -0.0278391  
C314     C      0.869920000000     0.502640000000     0.868200000000    -0.0280681  
C315     C      0.835990000000     0.490660000000     0.875610000000    -0.0274465  
C316     C      0.850100000000     0.473460000000     0.872750000000     0.0179319  
C317     C      0.869400000000     0.480390000000     0.868490000000     0.0192667  
C318     C      0.885380000000     0.467180000000     0.864500000000    -0.065997   
C319     C      0.894940000000     0.429740000000     0.860480000000    -0.0281702  
C320     C      0.845760000000     0.452780000000     0.873340000000    -0.0645789  
C321     C      0.881070000000     0.446580000000     0.865140000000     0.0192461  
C322     C      0.861830000000     0.439500000000     0.869490000000     0.0179952  
C323     C      0.837150000000     0.588530000000     0.801260000000    -0.0282508  
C324     C      0.896780000000     0.603170000000     0.740840000000    -0.0276119  
C325     C      0.862930000000     0.595920000000     0.728540000000    -0.0279987  
C326     C      0.863230000000     0.596270000000     0.750810000000     0.0192515  
C327     C      0.882490000000     0.600440000000     0.757930000000     0.0179546  
C328     C      0.886620000000     0.601070000000     0.778670000000    -0.0645979  
C329     C      0.870680000000     0.596160000000     0.814170000000    -0.0277147  
C330     C      0.847100000000     0.592400000000     0.763890000000    -0.0660702  
C331     C      0.870400000000     0.597350000000     0.791800000000     0.0179495  
C332     C      0.851210000000     0.593080000000     0.784540000000     0.0193315  
C333     C      0.896440000000     0.528670000000     0.643150000000    -0.0283542  
C334     C      0.837120000000     0.468390000000     0.626930000000    -0.0274138  
C335     C      0.870790000000     0.456060000000     0.634920000000    -0.0281383  
C336     C      0.870510000000     0.478310000000     0.634640000000     0.0193481  
C337     C      0.851350000000     0.485450000000     0.630060000000     0.01786    
C338     C      0.847250000000     0.506180000000     0.629400000000    -0.0645649  
C339     C      0.863100000000     0.541630000000     0.634780000000    -0.0277363  
C340     C      0.886550000000     0.491350000000     0.638930000000    -0.0661088  
C341     C      0.863390000000     0.519280000000     0.633550000000     0.0179334  
C342     C      0.882460000000     0.511990000000     0.638230000000     0.0193642  
C343     C      0.882960000000     0.678470000000     0.655530000000    -0.0283186  
C344     C      0.867910000000     0.738540000000     0.595920000000    -0.0273606  
C345     C      0.875290000000     0.750980000000     0.629560000000    -0.0282464  
C346     C      0.874960000000     0.728730000000     0.629360000000     0.0193953  
C347     C      0.870720000000     0.721530000000     0.610230000000     0.0177956  
C348     C      0.870100000000     0.700780000000     0.606200000000    -0.0645291  
C349     C      0.875180000000     0.665390000000     0.622230000000    -0.0277294  
C350     C      0.878930000000     0.715750000000     0.645470000000    -0.0661461  
C351     C      0.873920000000     0.687740000000     0.622420000000     0.0178815  
C352     C      0.878270000000     0.695090000000     0.641470000000     0.0193693  
C353     C      0.678220000000     0.601150000000     0.885890000000    -0.0278315  
C354     C      0.764190000000     0.608900000000     0.885180000000    -0.028023   
C355     C      0.751760000000     0.575310000000     0.877610000000    -0.0277294  
C356     C      0.734630000000     0.589490000000     0.880760000000     0.0180169  
C357     C      0.741830000000     0.608600000000     0.885120000000     0.0192743  
C358     C      0.728750000000     0.624570000000     0.889410000000    -0.0660465  
C359     C      0.691270000000     0.634400000000     0.893900000000    -0.0283072  
C360     C      0.713810000000     0.585370000000     0.880330000000    -0.0646082  
C361     C      0.708000000000     0.620480000000     0.888940000000     0.0193091  
C362     C      0.700660000000     0.601460000000     0.884450000000     0.0179812  
C363     C      0.868110000000     0.135270000000     0.992580000000    -0.0274352  
C364     C      0.856380000000     0.075070000000     0.052780000000    -0.0283695  
C365     C      0.862320000000     0.108740000000     0.065800000000    -0.0276116  
C366     C      0.863770000000     0.108550000000     0.043450000000     0.0178606  
C367     C      0.860490000000     0.089290000000     0.036130000000     0.0193667  
C368     C      0.860030000000     0.085240000000     0.015460000000    -0.0659976  
C369     C      0.862640000000     0.101280000000     0.980170000000    -0.0280059  
C370     C      0.866650000000     0.124920000000     0.030370000000    -0.064555   
C371     C      0.863100000000     0.101500000000     0.002440000000     0.0192148  
C372     C      0.866260000000     0.120840000000     0.009620000000     0.0178218  
C373     C      0.878690000000     0.280490000000     0.847750000000    -0.0281416  
C374     C      0.866410000000     0.220220000000     0.907770000000    -0.0275385  
C375     C      0.871770000000     0.207890000000     0.873710000000    -0.028107   
C376     C      0.871490000000     0.230150000000     0.874010000000     0.0192971  
C377     C      0.868390000000     0.237280000000     0.893390000000     0.0179032  
C378     C      0.868210000000     0.258000000000     0.897550000000    -0.0645242  
C379     C      0.872870000000     0.293430000000     0.881490000000    -0.0276866  
C380     C      0.874690000000     0.243190000000     0.857780000000    -0.0661117  
C381     C      0.871230000000     0.271100000000     0.881220000000     0.017884   
C382     C      0.874450000000     0.263830000000     0.861920000000     0.0192961  
C383     C      0.015360000000     0.115860000000     0.879600000000    -0.0278278  
C384     C      0.929260000000     0.115400000000     0.873220000000    -0.0275735  
C385     C      0.942790000000     0.124770000000     0.905940000000    -0.0280944  
C386     C      0.959340000000     0.119640000000     0.891870000000     0.0193325  
C387     C      0.951740000000     0.114380000000     0.873130000000     0.0178139  
C388     C      0.964680000000     0.109790000000     0.856980000000    -0.0644725  
C389     C      0.002520000000     0.106940000000     0.846470000000    -0.0273095  
C390     C      0.980140000000     0.120470000000     0.895610000000    -0.0660953  
C391     C      0.985570000000     0.110610000000     0.860740000000     0.0176256  
C392     C      0.993000000000     0.115740000000     0.879580000000     0.019123   
C393     C      0.480120000000     0.605930000000     0.848300000000    -0.027568   
C394     C      0.540680000000     0.621790000000     0.907490000000    -0.028348   
C395     C      0.553710000000     0.613240000000     0.874340000000    -0.0277694  
C396     C      0.531240000000     0.612180000000     0.874580000000     0.0179295  
C397     C      0.523910000000     0.616980000000     0.893550000000     0.0193634  
C398     C      0.503160000000     0.617870000000     0.897560000000    -0.0661453  
C399     C      0.467700000000     0.614090000000     0.881790000000    -0.0282489  
C400     C      0.518080000000     0.608120000000     0.858480000000    -0.0645604  
C401     C      0.490070000000     0.613670000000     0.881560000000     0.0193975  
C402     C      0.497250000000     0.608980000000     0.862510000000     0.0179001  
C403     C      0.366440000000     0.825210000000     0.991860000000    -0.0275077  
C404     C      0.353090000000     0.884870000000     0.052290000000    -0.0284498  
C405     C      0.360790000000     0.851500000000     0.065190000000    -0.0277881  
C406     C      0.361720000000     0.851720000000     0.042810000000     0.0179331  
C407     C      0.357410000000     0.870810000000     0.035550000000     0.0193387  
C408     C      0.356360000000     0.874820000000     0.014890000000    -0.0661496  
C409     C      0.359110000000     0.858890000000     0.979550000000    -0.0279761  
C410     C      0.365110000000     0.835500000000     0.029680000000    -0.0645753  
C411     C      0.359910000000     0.858690000000     0.001810000000     0.0192042  
C412     C      0.364120000000     0.839530000000     0.008930000000     0.0178226  
C413     C      0.373390000000     0.752590000000     0.873710000000    -0.028265   
C414     C      0.373580000000     0.667050000000     0.881750000000    -0.0275444  
C415     C      0.380970000000     0.679860000000     0.848260000000    -0.0283689  
C416     C      0.376350000000     0.696600000000     0.862220000000     0.0194072  
C417     C      0.372220000000     0.689400000000     0.881380000000     0.0178434  
C418     C      0.368550000000     0.702560000000     0.897530000000    -0.0645351  
C419     C      0.366390000000     0.740390000000     0.907530000000    -0.0275633  
C420     C      0.376930000000     0.717220000000     0.858050000000    -0.0661409  
C421     C      0.369070000000     0.723270000000     0.893330000000     0.0178976  
C422     C      0.373100000000     0.730330000000     0.874090000000     0.019367   
C423     C      0.335650000000     0.469740000000     0.876920000000    -0.0276408  
C424     C      0.395020000000     0.530400000000     0.862440000000    -0.0283127  
C425     C      0.361290000000     0.543130000000     0.869440000000    -0.0275492  
C426     C      0.361740000000     0.520800000000     0.870960000000     0.0178637  
C427     C      0.381030000000     0.513650000000     0.867050000000     0.0193572  
C428     C      0.385310000000     0.493030000000     0.866650000000    -0.0661027  
C429     C      0.369700000000     0.457640000000     0.870270000000    -0.0281723  
C430     C      0.345550000000     0.507590000000     0.874590000000    -0.0646079  
C431     C      0.369230000000     0.479890000000     0.870430000000     0.0193534  
C432     C      0.349860000000     0.486900000000     0.874250000000     0.0179618  
C433     C      0.145540000000     0.969080000000     0.875780000000    -0.0273252  
C434     C      0.086660000000     0.029960000000     0.860280000000    -0.0287086  
C435     C      0.120240000000     0.042550000000     0.868190000000    -0.0274785  
C436     C      0.119700000000     0.020210000000     0.869550000000     0.0173597  
C437     C      0.100480000000     0.013130000000     0.865120000000     0.0205627  
C438     C      0.096180000000     0.992530000000     0.864470000000    -0.0673377  
C439     C      0.111640000000     0.957070000000     0.868240000000    -0.0284119  
C440     C      0.135760000000     0.006950000000     0.873480000000    -0.0634102  
C441     C      0.112140000000     0.979320000000     0.868550000000     0.0199375  
C442     C      0.131420000000     0.986270000000     0.872890000000     0.0168328  
C443     C      0.303570000000     0.858800000000     0.886210000000    -0.0276248  
C444     C      0.217580000000     0.851160000000     0.885720000000    -0.0282147  
C445     C      0.230030000000     0.884670000000     0.877830000000    -0.0275157  
C446     C      0.247150000000     0.870520000000     0.881150000000     0.0178901  
C447     C      0.239940000000     0.851460000000     0.885700000000     0.0193615  
C448     C      0.253010000000     0.835510000000     0.890100000000    -0.0660905  
C449     C      0.290480000000     0.825650000000     0.894560000000    -0.0282875  
C450     C      0.267980000000     0.874610000000     0.880640000000    -0.0645567  
C451     C      0.273760000000     0.839570000000     0.889570000000     0.0193753  
C452     C      0.281120000000     0.858540000000     0.884890000000     0.0178571  
C453     C      0.362180000000     0.596280000000     0.775440000000    -0.0279803  
C454     C      0.370940000000     0.596150000000     0.689900000000    -0.027669   
C455     C      0.337390000000     0.588040000000     0.702460000000    -0.0282832  
C456     C      0.351180000000     0.592900000000     0.719320000000     0.0193225  
C457     C      0.370380000000     0.597440000000     0.712260000000     0.017938   
C458     C      0.386380000000     0.601510000000     0.725560000000    -0.0645986  
C459     C      0.396050000000     0.604020000000     0.763490000000    -0.0275872  
C460     C      0.346840000000     0.592260000000     0.739930000000    -0.0660434  
C461     C      0.382010000000     0.600920000000     0.746250000000     0.0179622  
C462     C      0.362740000000     0.596470000000     0.753170000000     0.0192561  
C463     C      0.361130000000     0.601390000000     0.480240000000    -0.0281726  
C464     C      0.359870000000     0.609030000000     0.565870000000    -0.0278112  
C465     C      0.353020000000     0.575540000000     0.552810000000    -0.028274   
C466     C      0.357690000000     0.589610000000     0.536180000000     0.019291   
C467     C      0.361510000000     0.608770000000     0.543520000000     0.0179775  
C468     C      0.365120000000     0.625010000000     0.530460000000    -0.0646223  
C469     C      0.367550000000     0.635210000000     0.492670000000    -0.0276716  
C470     C      0.357410000000     0.585540000000     0.515520000000    -0.0659944  
C471     C      0.364890000000     0.620900000000     0.509710000000     0.0179621  
C472     C      0.361190000000     0.601670000000     0.502510000000     0.0192771  
C473     C      0.306120000000     0.601250000000     0.386820000000    -0.0276318  
C474     C      0.220080000000     0.608410000000     0.385990000000    -0.028089   
C475     C      0.232760000000     0.574980000000     0.378090000000    -0.0277168  
C476     C      0.249780000000     0.589220000000     0.381510000000     0.0179592  
C477     C      0.242450000000     0.608230000000     0.386060000000     0.0192867  
C478     C      0.255410000000     0.624250000000     0.390560000000    -0.0660856  
C479     C      0.292810000000     0.634310000000     0.395200000000    -0.0282978  
C480     C      0.270640000000     0.585260000000     0.381080000000    -0.0645347  
C481     C      0.276180000000     0.620300000000     0.390110000000     0.0193566  
C482     C      0.283660000000     0.601380000000     0.385430000000     0.0178825  
C483     C      0.133060000000     0.574970000000     0.450750000000    -0.0283113  
C484     C      0.117840000000     0.634340000000     0.511010000000    -0.0274742  
C485     C      0.124860000000     0.600620000000     0.523380000000    -0.0282775  
C486     C      0.124710000000     0.600920000000     0.501110000000     0.0193952  
C487     C      0.120670000000     0.620100000000     0.493950000000     0.0178732  
C488     C      0.120300000000     0.624220000000     0.473200000000    -0.064582   
C489     C      0.125640000000     0.608360000000     0.437760000000    -0.0278279  
C490     C      0.128700000000     0.584860000000     0.488070000000    -0.0661454  
C491     C      0.124130000000     0.608060000000     0.460110000000     0.0179748  
C492     C      0.128270000000     0.588960000000     0.467410000000     0.0193629  
C493     C      0.981710000000     0.604980000000     0.655960000000    -0.0275224  
C494     C      0.041950000000     0.621100000000     0.596510000000    -0.0280903  
C495     C      0.055150000000     0.613190000000     0.629750000000    -0.0278026  
C496     C      0.032700000000     0.611770000000     0.629550000000     0.0180442  
C497     C      0.025280000000     0.616180000000     0.610530000000     0.019065   
C498     C      0.004520000000     0.616640000000     0.606530000000    -0.0650414  
C499     C      0.969140000000     0.612440000000     0.622360000000    -0.0280104  
C500     C      0.019630000000     0.607690000000     0.645720000000    -0.0641912  
C501     C      0.991510000000     0.612410000000     0.622590000000     0.0187771  
C502     C      0.998780000000     0.608120000000     0.641700000000     0.0176526  
C503     C      0.265420000000     0.608330000000     0.617650000000    -0.0280689  
C504     C      0.179430000000     0.600680000000     0.616960000000    -0.0276385  
C505     C      0.192530000000     0.633870000000     0.608800000000    -0.0281727  
C506     C      0.209250000000     0.619940000000     0.613790000000     0.0192967  
C507     C      0.201890000000     0.600950000000     0.618360000000     0.0179085  
C508     C      0.215010000000     0.584870000000     0.622560000000    -0.0645449  
C509     C      0.252960000000     0.574790000000     0.625370000000    -0.0275432  
C510     C      0.230000000000     0.624010000000     0.613290000000    -0.0660568  
C511     C      0.235840000000     0.588950000000     0.622090000000     0.0179086  
C512     C      0.243060000000     0.608030000000     0.617640000000     0.0193054  
C513     C      0.678660000000     0.357520000000     0.616220000000    -0.0277501  
C514     C      0.764690000000     0.350320000000     0.616270000000    -0.0280347  
C515     C      0.752110000000     0.383750000000     0.624310000000    -0.0275811  
C516     C      0.735040000000     0.369530000000     0.621010000000     0.0179041  
C517     C      0.742330000000     0.350520000000     0.616380000000     0.0193295  
C518     C      0.729320000000     0.334500000000     0.612000000000    -0.0662019  
C519     C      0.691890000000     0.324450000000     0.607740000000    -0.0283822  
C520     C      0.714190000000     0.373500000000     0.621640000000    -0.0645274  
C521     C      0.708560000000     0.338460000000     0.612650000000     0.0194366  
C522     C      0.701120000000     0.357380000000     0.617410000000     0.0178876  
C523     C      0.336830000000     0.372460000000     0.802110000000    -0.0284652  
C524     C      0.396290000000     0.356150000000     0.741930000000    -0.0274202  
C525     C      0.362590000000     0.363900000000     0.729510000000    -0.0281936  
C526     C      0.362870000000     0.363820000000     0.751780000000     0.019409   
C527     C      0.382040000000     0.359360000000     0.758970000000     0.017815   
C528     C      0.386120000000     0.358840000000     0.779730000000    -0.064464   
C529     C      0.370180000000     0.364290000000     0.815160000000    -0.0275345  
C530     C      0.346800000000     0.368120000000     0.764790000000    -0.0661513  
C531     C      0.369940000000     0.362990000000     0.792800000000     0.0178122  
C532     C      0.350860000000     0.367560000000     0.785460000000     0.0194443  
C533     C      0.554470000000     0.344350000000     0.629970000000    -0.0276551  
C534     C      0.468400000000     0.344810000000     0.623320000000    -0.0281722  
C535     C      0.481230000000     0.352960000000     0.656650000000    -0.0274671  
C536     C      0.498190000000     0.349510000000     0.642320000000     0.017837   
C537     C      0.490760000000     0.344810000000     0.623370000000     0.0194075  
C538     C      0.503630000000     0.340260000000     0.607290000000    -0.0661877  
C539     C      0.540980000000     0.335720000000     0.597020000000    -0.0283523  
C540     C      0.519070000000     0.350050000000     0.646160000000    -0.0645073  
C541     C      0.524430000000     0.340810000000     0.611110000000     0.0194179  
C542     C      0.532010000000     0.345650000000     0.629970000000     0.0178635  
C543     C      0.337540000000     0.490300000000     0.627850000000    -0.0277069  
C544     C      0.396600000000     0.429620000000     0.643520000000    -0.0283224  
C545     C      0.363090000000     0.416900000000     0.635480000000    -0.0277608  
C546     C      0.363540000000     0.439240000000     0.634180000000     0.017971   
C547     C      0.382710000000     0.446390000000     0.638680000000     0.019289   
C548     C      0.386930000000     0.467010000000     0.639370000000    -0.0659783  
C549     C      0.371370000000     0.502410000000     0.635540000000    -0.0281233  
C550     C      0.347440000000     0.452450000000     0.630200000000    -0.0646454  
C551     C      0.370940000000     0.480160000000     0.635240000000     0.0192703  
C552     C      0.351700000000     0.473150000000     0.630820000000     0.0179963  
C553     C      0.397620000000     0.855370000000     0.262840000000    -0.0276272  
C554     C      0.338680000000     0.871250000000     0.202060000000    -0.0283172  
C555     C      0.372180000000     0.863160000000     0.189360000000    -0.0276162  
C556     C      0.371710000000     0.861830000000     0.211720000000     0.0178608  
C557     C      0.352540000000     0.866370000000     0.218860000000     0.01934    
C558     C      0.348290000000     0.867020000000     0.239490000000    -0.0660743  
C559     C      0.363800000000     0.863090000000     0.274940000000    -0.0280262  
C560     C      0.387780000000     0.857810000000     0.224960000000    -0.0645709  
C561     C      0.364250000000     0.862840000000     0.252670000000     0.0192496  
C562     C      0.383500000000     0.858400000000     0.245670000000     0.017968   
C563     C      0.555700000000     0.844620000000     0.373150000000    -0.0276514  
C564     C      0.469720000000     0.845070000000     0.380890000000    -0.0280198  
C565     C      0.482130000000     0.852920000000     0.347330000000    -0.0275393  
C566     C      0.499270000000     0.849640000000     0.361480000000     0.017908   
C567     C      0.492080000000     0.845130000000     0.380570000000     0.0192606  
C568     C      0.505170000000     0.840760000000     0.396530000000    -0.066022   
C569     C      0.542660000000     0.836350000000     0.406360000000    -0.0281542  
C570     C      0.520100000000     0.850160000000     0.357370000000    -0.064603   
C571     C      0.525910000000     0.841310000000     0.392440000000     0.0192656  
C572     C      0.533250000000     0.845940000000     0.373440000000     0.0179228  
C573     C      0.382350000000     0.780160000000     0.348120000000    -0.0284559  
C574     C      0.368490000000     0.719960000000     0.407900000000    -0.0276046  
C575     C      0.374930000000     0.707590000000     0.374040000000    -0.0280301  
C576     C      0.374680000000     0.729850000000     0.374300000000     0.0192988  
C577     C      0.370980000000     0.737010000000     0.393570000000     0.0179174  
C578     C      0.370590000000     0.757740000000     0.397670000000    -0.0645806  
C579     C      0.375510000000     0.793160000000     0.381660000000    -0.0277952  
C580     C      0.378310000000     0.742860000000     0.358150000000    -0.0660761  
C581     C      0.374060000000     0.770820000000     0.381420000000     0.0179367  
C582     C      0.377870000000     0.763510000000     0.362230000000     0.0193611  
C583     C      0.397680000000     0.929660000000     0.361050000000    -0.0283116  
C584     C      0.338960000000     0.990700000000     0.376590000000    -0.0282438  
C585     C      0.372940000000     0.002600000000     0.369260000000    -0.0273345  
C586     C      0.372340000000     0.980350000000     0.369410000000     0.0184245  
C587     C      0.353000000000     0.973460000000     0.373620000000     0.0182465  
C588     C      0.348590000000     0.952790000000     0.374080000000    -0.0647597  
C589     C      0.364020000000     0.917150000000     0.368760000000    -0.0276616  
C590     C      0.388260000000     0.967100000000     0.365320000000    -0.0657521  
C591     C      0.364610000000     0.939480000000     0.370140000000     0.0179821  
C592     C      0.383870000000     0.946510000000     0.365830000000     0.0191576  
C593     C      0.898050000000     0.028920000000     0.361600000000    -0.0285849  
C594     C      0.838340000000     0.968490000000     0.375710000000    -0.0271664  
C595     C      0.872280000000     0.956230000000     0.368810000000    -0.0283114  
C596     C      0.871960000000     0.978490000000     0.369160000000     0.0198927  
C597     C      0.852650000000     0.985580000000     0.373120000000     0.0167321  
C598     C      0.848480000000     0.006300000000     0.373690000000    -0.0633404  
C599     C      0.864430000000     0.041790000000     0.368870000000    -0.0275537  
C600     C      0.888110000000     0.991570000000     0.365440000000    -0.0673361  
C601     C      0.864740000000     0.019440000000     0.370120000000     0.0173367  
C602     C      0.883970000000     0.012200000000     0.366060000000     0.0205205  
C603     C      0.765990000000     0.850060000000     0.384370000000    -0.0282845  
C604     C      0.679990000000     0.857510000000     0.385390000000    -0.027682   
C605     C      0.693190000000     0.824240000000     0.393060000000    -0.028291   
C606     C      0.709850000000     0.838260000000     0.388150000000     0.019392   
C607     C      0.702430000000     0.857300000000     0.383870000000     0.0178718  
C608     C      0.715510000000     0.873470000000     0.379870000000    -0.064543   
C609     C      0.753430000000     0.883690000000     0.377160000000    -0.0275725  
C610     C      0.730610000000     0.834240000000     0.388540000000    -0.06619    
C611     C      0.736350000000     0.869430000000     0.380210000000     0.0178615  
C612     C      0.743620000000     0.850300000000     0.384370000000     0.019415   
C613     C      0.859620000000     0.849810000000     0.437850000000    -0.0276922  
C614     C      0.859200000000     0.856970000000     0.523520000000    -0.0281799  
C615     C      0.866630000000     0.823370000000     0.511030000000    -0.0276632  
C616     C      0.863850000000     0.837690000000     0.494020000000     0.0179206  
C617     C      0.859580000000     0.856800000000     0.501250000000     0.0193359  
C618     C      0.855650000000     0.872920000000     0.488280000000    -0.0661081  
C619     C      0.851780000000     0.883050000000     0.450970000000    -0.0281615  
C620     C      0.864540000000     0.833720000000     0.473260000000    -0.0645252  
C621     C      0.856390000000     0.868960000000     0.467600000000     0.01929    
C622     C      0.860770000000     0.849940000000     0.460220000000     0.0178767  
C623     C      0.610940000000     0.292130000000     0.121870000000    -0.027793   
C624     C      0.612600000000     0.206640000000     0.130220000000    -0.0281365  
C625     C      0.619090000000     0.218820000000     0.096300000000    -0.0275217  
C626     C      0.616290000000     0.235950000000     0.110470000000     0.0178808  
C627     C      0.612540000000     0.228890000000     0.129760000000     0.0193097  
C628     C      0.608610000000     0.242000000000     0.145780000000    -0.0660524  
C629     C      0.603990000000     0.279320000000     0.155460000000    -0.0282728  
C630     C      0.616420000000     0.256650000000     0.106190000000    -0.0645528  
C631     C      0.608780000000     0.262610000000     0.141530000000     0.0193275  
C632     C      0.612650000000     0.269810000000     0.122310000000     0.0179552  
C633     C      0.589080000000     0.428750000000     0.141880000000    -0.0282849  
C634     C      0.648400000000     0.489440000000     0.127260000000    -0.0277279  
C635     C      0.614450000000     0.501550000000     0.134390000000    -0.028037   
C636     C      0.614880000000     0.479290000000     0.134070000000     0.0192134  
C637     C      0.634190000000     0.472290000000     0.129970000000     0.0180247  
C638     C      0.638460000000     0.451590000000     0.129410000000    -0.0646619  
C639     C      0.622720000000     0.416030000000     0.134390000000    -0.0277446  
C640     C      0.598820000000     0.466140000000     0.137920000000    -0.0659884  
C641     C      0.622300000000     0.438380000000     0.133110000000     0.0179646  
C642     C      0.603060000000     0.445530000000     0.137300000000     0.0192968  
C643     C      0.626140000000     0.608210000000     0.065430000000    -0.0277397  
C644     C      0.624670000000     0.600810000000     0.979780000000    -0.0280894  
C645     C      0.617610000000     0.634460000000     0.992340000000    -0.0274494  
C646     C      0.620700000000     0.620170000000     0.009330000000     0.0178161  
C647     C      0.624770000000     0.601040000000     0.002060000000     0.0192355  
C648     C      0.628960000000     0.584950000000     0.014990000000    -0.06605    
C649     C      0.633640000000     0.574920000000     0.052240000000    -0.0280663  
C650     C      0.620480000000     0.624210000000     0.030090000000    -0.0645766  
C651     C      0.628700000000     0.588970000000     0.035670000000     0.0192521  
C652     C      0.624510000000     0.608020000000     0.043090000000     0.0179417  
C653     C      0.792400000000     0.324190000000     0.394240000000    -0.0283267  
C654     C      0.732060000000     0.383450000000     0.377930000000    -0.0276219  
C655     C      0.719530000000     0.349980000000     0.385870000000    -0.0280777  
C656     C      0.741900000000     0.350200000000     0.385710000000     0.0192466  
C657     C      0.749150000000     0.369230000000     0.381140000000     0.01798    
C658     C      0.769990000000     0.373240000000     0.380500000000    -0.0646395  
C659     C      0.805550000000     0.357310000000     0.385860000000    -0.0276161  
C660     C      0.754940000000     0.334190000000     0.390020000000    -0.0659873  
C661     C      0.783090000000     0.357120000000     0.384660000000     0.0179077  
C662     C      0.775700000000     0.338170000000     0.389350000000     0.0193332  
C663     C      0.623190000000     0.357330000000     0.523270000000    -0.0281932  
C664     C      0.624940000000     0.349540000000     0.437670000000    -0.027745   
C665     C      0.631790000000     0.383030000000     0.450710000000    -0.0282588  
C666     C      0.626970000000     0.369000000000     0.467330000000     0.0193254  
C667     C      0.623160000000     0.349840000000     0.460000000000     0.0179498  
C668     C      0.619440000000     0.333630000000     0.473070000000    -0.0646359  
C669     C      0.616800000000     0.323500000000     0.510860000000    -0.027632   
C670     C      0.627130000000     0.373120000000     0.487990000000    -0.0661019  
C671     C      0.619550000000     0.337770000000     0.493820000000     0.0179515  
C672     C      0.623230000000     0.357020000000     0.501000000000     0.0193286  
C673     C      0.613930000000     0.362330000000     0.313760000000    -0.0278227  
C674     C      0.622290000000     0.362620000000     0.228180000000    -0.0280654  
C675     C      0.588510000000     0.354690000000     0.240260000000    -0.027647   
C676     C      0.602610000000     0.357760000000     0.257440000000     0.017997   
C677     C      0.621840000000     0.362310000000     0.250460000000     0.0192627  
C678     C      0.637780000000     0.366520000000     0.263640000000    -0.0660277  
C679     C      0.647400000000     0.370600000000     0.301090000000    -0.0281843  
C680     C      0.598340000000     0.357080000000     0.278150000000    -0.0646243  
C681     C      0.633540000000     0.365780000000     0.284270000000     0.0192562  
C682     C      0.614400000000     0.361140000000     0.291400000000     0.0179932  
C683     C      0.516320000000     0.613700000000     0.380990000000    -0.0281127  
C684     C      0.430280000000     0.614280000000     0.373900000000    -0.0276718  
C685     C      0.443600000000     0.622790000000     0.406940000000    -0.0281605  
C686     C      0.460230000000     0.617700000000     0.392930000000     0.0193492  
C687     C      0.452740000000     0.612930000000     0.374020000000     0.017881   
C688     C      0.465760000000     0.608580000000     0.357880000000    -0.0645291  
C689     C      0.503640000000     0.605660000000     0.347570000000    -0.0275004  
C690     C      0.481000000000     0.618230000000     0.396860000000    -0.0661384  
C691     C      0.486620000000     0.609090000000     0.361830000000     0.0178936  
C692     C      0.493960000000     0.613720000000     0.380830000000     0.0193365  
C693     C      0.622140000000     0.595050000000     0.274820000000    -0.0280864  
C694     C      0.614270000000     0.595040000000     0.189190000000    -0.0278308  
C695     C      0.647680000000     0.586850000000     0.202100000000    -0.0283441  
C696     C      0.633710000000     0.591700000000     0.218820000000     0.0193736  
C697     C      0.614600000000     0.596280000000     0.211560000000     0.0179408  
C698     C      0.598460000000     0.600350000000     0.224700000000    -0.0645429  
C699     C      0.588400000000     0.602840000000     0.262540000000    -0.0275053  
C700     C      0.637840000000     0.591040000000     0.239470000000    -0.0661277  
C701     C      0.602610000000     0.599730000000     0.245440000000     0.0178816  
C702     C      0.621800000000     0.595250000000     0.252550000000     0.0193208  
C703     C      0.647480000000     0.468170000000     0.375910000000    -0.0274793  
C704     C      0.588350000000     0.528870000000     0.360570000000    -0.0283577  
C705     C      0.621840000000     0.541590000000     0.368700000000    -0.0277306  
C706     C      0.621420000000     0.519240000000     0.369860000000     0.0178961  
C707     C      0.602270000000     0.512080000000     0.365300000000     0.0193872  
C708     C      0.598070000000     0.491470000000     0.364480000000    -0.0661201  
C709     C      0.613680000000     0.456060000000     0.368110000000    -0.0281818  
C710     C      0.637530000000     0.506020000000     0.373770000000    -0.0645576  
C711     C      0.614080000000     0.478320000000     0.368540000000     0.0193379  
C712     C      0.633310000000     0.485320000000     0.373020000000     0.0178959  
C713     C      0.617760000000     0.738830000000     0.406800000000    -0.027571   
C714     C      0.603050000000     0.678490000000     0.347380000000    -0.0281743  
C715     C      0.610600000000     0.665570000000     0.380790000000    -0.0277938  
C716     C      0.611940000000     0.687920000000     0.380490000000     0.0179377  
C717     C      0.607720000000     0.695180000000     0.361370000000     0.0192942  
C718     C      0.607080000000     0.715820000000     0.357280000000    -0.0660904  
C719     C      0.610590000000     0.751130000000     0.373060000000    -0.0282553  
C720     C      0.615650000000     0.701040000000     0.396670000000    -0.0645973  
C721     C      0.610940000000     0.728880000000     0.373350000000     0.0193477  
C722     C      0.615070000000     0.721760000000     0.392550000000     0.0179302  
C723     C      0.838950000000     0.871120000000     0.300940000000    -0.0282443  
C724     C      0.898330000000     0.854630000000     0.240750000000    -0.0275742  
C725     C      0.864700000000     0.862700000000     0.228330000000    -0.0281886  
C726     C      0.864950000000     0.862480000000     0.250600000000     0.019378   
C727     C      0.884080000000     0.857850000000     0.257790000000     0.0179241  
C728     C      0.888150000000     0.857210000000     0.278540000000    -0.0646307  
C729     C      0.872230000000     0.862670000000     0.313980000000    -0.0276759  
C730     C      0.848910000000     0.866840000000     0.263610000000    -0.0661577  
C731     C      0.871990000000     0.861430000000     0.291610000000     0.0179071  
C732     C      0.852950000000     0.866170000000     0.284280000000     0.019334   
C733     C      0.899110000000     0.928680000000     0.142700000000    -0.028127   
C734     C      0.840280000000     0.989620000000     0.127200000000    -0.0281812  
C735     C      0.874090000000     0.001600000000     0.135160000000    -0.0273268  
C736     C      0.873620000000     0.979340000000     0.134670000000     0.0184047  
C737     C      0.854380000000     0.972410000000     0.130110000000     0.0182645  
C738     C      0.850080000000     0.951730000000     0.129320000000    -0.0648737  
C739     C      0.865610000000     0.916100000000     0.134420000000    -0.0278017  
C740     C      0.889560000000     0.966130000000     0.138780000000    -0.0657263  
C741     C      0.866120000000     0.938460000000     0.133290000000     0.0180836  
C742     C      0.885290000000     0.945530000000     0.137930000000     0.0190269  
C743     C      0.441080000000     0.838470000000     0.906200000000    -0.0282883  
C744     C      0.501460000000     0.853250000000     0.846560000000    -0.0275078  
C745     C      0.513940000000     0.846370000000     0.880310000000    -0.0281182  
C746     C      0.491580000000     0.846510000000     0.880050000000     0.019349   
C747     C      0.484350000000     0.850480000000     0.860850000000     0.017857   
C748     C      0.463510000000     0.850900000000     0.856780000000    -0.0645415  
C749     C      0.427940000000     0.845790000000     0.872800000000    -0.0276433  
C750     C      0.478530000000     0.842630000000     0.896160000000    -0.0660647  
C751     C      0.450400000000     0.847170000000     0.873010000000     0.0178629  
C752     C      0.457780000000     0.843090000000     0.892120000000     0.0193446  
C753     C      0.607600000000     0.792290000000     0.880700000000    -0.0277901  
C754     C      0.607550000000     0.706660000000     0.873710000000    -0.0282367  
C755     C      0.615180000000     0.719250000000     0.907250000000    -0.0275567  
C756     C      0.612180000000     0.736200000000     0.892910000000     0.0178824  
C757     C      0.607780000000     0.728920000000     0.873840000000     0.0193489  
C758     C      0.603650000000     0.741830000000     0.857720000000    -0.0660228  
C759     C      0.599530000000     0.779070000000     0.847520000000    -0.0282295  
C760     C      0.612800000000     0.756970000000     0.896840000000    -0.064567   
C761     C      0.604300000000     0.762500000000     0.861620000000     0.0193048  
C762     C      0.608820000000     0.769940000000     0.880610000000     0.0179655  
C763     C      0.731910000000     0.882960000000     0.625740000000    -0.0277118  
C764     C      0.792160000000     0.823680000000     0.609230000000    -0.0283517  
C765     C      0.805350000000     0.856840000000     0.617400000000    -0.0276263  
C766     C      0.782900000000     0.856620000000     0.618830000000     0.0178793  
C767     C      0.775480000000     0.837650000000     0.614270000000     0.0193403  
C768     C      0.754720000000     0.833650000000     0.613750000000    -0.0660598  
C769     C      0.719340000000     0.849450000000     0.618010000000    -0.0280065  
C770     C      0.769820000000     0.872750000000     0.623010000000    -0.0646132  
C771     C      0.741710000000     0.849660000000     0.618090000000     0.0192659  
C772     C      0.748980000000     0.868720000000     0.622540000000     0.0179803  
C773     C      0.626000000000     0.857130000000     0.479100000000    -0.0280285  
C774     C      0.625620000000     0.849600000000     0.564740000000    -0.0278046  
C775     C      0.633340000000     0.882940000000     0.551780000000    -0.0281776  
C776     C      0.628750000000     0.868920000000     0.535080000000     0.0192554  
C777     C      0.624430000000     0.849840000000     0.542370000000     0.0180088  
C778     C      0.620730000000     0.833660000000     0.529270000000    -0.0646749  
C779     C      0.618690000000     0.823470000000     0.491460000000    -0.027616   
C780     C      0.629480000000     0.872960000000     0.514420000000    -0.0660522  
C781     C      0.621410000000     0.837730000000     0.508520000000     0.0179864  
C782     C      0.625620000000     0.856880000000     0.501370000000     0.0192242  
C783     C      0.646280000000     0.869380000000     0.701540000000    -0.0282396  
C784     C      0.586520000000     0.854640000000     0.761810000000    -0.0277019  
C785     C      0.620480000000     0.861290000000     0.774180000000    -0.0281969  
C786     C      0.620160000000     0.861220000000     0.751900000000     0.0193386  
C787     C      0.600840000000     0.857390000000     0.744750000000     0.017965   
C788     C      0.596680000000     0.857100000000     0.724010000000    -0.0646041  
C789     C      0.612650000000     0.862310000000     0.688560000000    -0.0278225  
C790     C      0.636320000000     0.865080000000     0.738870000000    -0.0661539  
C791     C      0.612940000000     0.860800000000     0.710910000000     0.0179533  
C792     C      0.632180000000     0.864740000000     0.718210000000     0.0193166  
C793     C      0.942710000000     0.836250000000     0.595960000000    -0.0283072  
C794     C      0.003180000000     0.853180000000     0.654940000000    -0.0273998  
C795     C      0.015630000000     0.845120000000     0.621430000000    -0.0278378  
C796     C      0.993260000000     0.845230000000     0.621720000000     0.018999   
C797     C      0.986060000000     0.849860000000     0.640780000000     0.0176984  
C798     C      0.965230000000     0.850400000000     0.644870000000    -0.064617   
C799     C      0.929640000000     0.844730000000     0.629120000000    -0.0277985  
C800     C      0.980190000000     0.840760000000     0.605780000000    -0.0659968  
C801     C      0.952090000000     0.846080000000     0.628820000000     0.0179466  
C802     C      0.959440000000     0.841340000000     0.609850000000     0.0192501  
C803     C      0.120950000000     0.863060000000     0.727880000000    -0.0280616  
C804     C      0.111940000000     0.863460000000     0.813390000000    -0.0277916  
C805     C      0.145570000000     0.871380000000     0.800900000000    -0.0282763  
C806     C      0.131800000000     0.866550000000     0.784020000000     0.0193222  
C807     C      0.112560000000     0.862120000000     0.791040000000     0.0179537  
C808     C      0.096570000000     0.858090000000     0.777700000000    -0.0645729  
C809     C      0.087010000000     0.855520000000     0.739750000000    -0.0274649  
C810     C      0.136200000000     0.867110000000     0.763420000000    -0.0660808  
C811     C      0.101000000000     0.858600000000     0.757020000000     0.017924   
C812     C      0.120320000000     0.862940000000     0.750150000000     0.0193022  
C813     C      0.109590000000     0.792320000000     0.621410000000    -0.0277526  
C814     C      0.109610000000     0.706770000000     0.629300000000    -0.0281678  
C815     C      0.116620000000     0.719020000000     0.595500000000    -0.027671   
C816     C      0.113960000000     0.736110000000     0.609730000000     0.017975   
C817     C      0.109930000000     0.729030000000     0.628960000000     0.0193332  
C818     C      0.106130000000     0.742110000000     0.645020000000    -0.0660283  
C819     C      0.102180000000     0.779470000000     0.654880000000    -0.0282255  
C820     C      0.114520000000     0.756830000000     0.605570000000    -0.0646265  
C821     C      0.106740000000     0.762750000000     0.640890000000     0.0192777  
C822     C      0.110880000000     0.769970000000     0.621740000000     0.0179827  
C823     C      0.088630000000     0.928930000000     0.640600000000    -0.0282619  
C824     C      0.148400000000     0.989320000000     0.626670000000    -0.0282298  
C825     C      0.114330000000     0.001580000000     0.632910000000    -0.027454   
C826     C      0.114700000000     0.979320000000     0.632780000000     0.0184909  
C827     C      0.134090000000     0.972230000000     0.629190000000     0.0182657  
C828     C      0.138310000000     0.951520000000     0.628930000000    -0.0648744  
C829     C      0.122380000000     0.916060000000     0.633950000000    -0.0277915  
C830     C      0.098530000000     0.966250000000     0.636420000000    -0.0658062  
C831     C      0.122040000000     0.938390000000     0.632410000000     0.0180619  
C832     C      0.102730000000     0.945620000000     0.636110000000     0.019162   
C833     C      0.353480000000     0.075700000000     0.452490000000    -0.0284452  
C834     C      0.368090000000     0.135100000000     0.512890000000    -0.0276084  
C835     C      0.360760000000     0.101420000000     0.525200000000    -0.0281566  
C836     C      0.361170000000     0.101700000000     0.502930000000     0.0193523  
C837     C      0.365380000000     0.120860000000     0.495800000000     0.0179205  
C838     C      0.366080000000     0.124950000000     0.475060000000    -0.0645411  
C839     C      0.361210000000     0.109050000000     0.439560000000    -0.0277377  
C840     C      0.357300000000     0.085640000000     0.489860000000    -0.0661081  
C841     C      0.362370000000     0.108790000000     0.461930000000     0.0179037  
C842     C      0.358040000000     0.089710000000     0.469200000000     0.0194395  
C843     C      0.375770000000     0.207280000000     0.631380000000    -0.0281125  
C844     C      0.374460000000     0.292850000000     0.623870000000    -0.027752   
C845     C      0.382290000000     0.279970000000     0.657230000000    -0.0282307  
C846     C      0.377820000000     0.263240000000     0.643210000000     0.01928    
C847     C      0.373440000000     0.270490000000     0.624120000000     0.0179323  
C848     C      0.369890000000     0.257360000000     0.607920000000    -0.0645914  
C849     C      0.368310000000     0.219570000000     0.597690000000    -0.0277242  
C850     C      0.378790000000     0.242600000000     0.647240000000    -0.0660655  
C851     C      0.370800000000     0.236640000000     0.611980000000     0.0179873  
C852     C      0.375080000000     0.229530000000     0.631150000000     0.0193041  
C853     C      0.306770000000     0.100580000000     0.618580000000    -0.0277386  
C854     C      0.220760000000     0.107940000000     0.619210000000    -0.028119   
C855     C      0.233300000000     0.074210000000     0.625910000000    -0.0274134  
C856     C      0.250390000000     0.088540000000     0.623250000000     0.0178878  
C857     C      0.243130000000     0.107730000000     0.619380000000     0.0193318  
C858     C      0.256150000000     0.123870000000     0.615570000000    -0.0660587  
C859     C      0.293590000000     0.133960000000     0.611410000000    -0.0281455  
C860     C      0.271230000000     0.084500000000     0.623640000000    -0.0645325  
C861     C      0.276910000000     0.119860000000     0.616010000000     0.0192897  
C862     C      0.284320000000     0.100750000000     0.620000000000     0.0179492  
C863     C      0.517070000000     0.113530000000     0.623330000000    -0.0279124  
C864     C      0.431100000000     0.113910000000     0.631170000000    -0.0277276  
C865     C      0.444100000000     0.122250000000     0.597960000000    -0.0282424  
C866     C      0.460860000000     0.117270000000     0.611840000000     0.0193279  
C867     C      0.453560000000     0.112600000000     0.630850000000     0.0179942  
C868     C      0.466730000000     0.108370000000     0.646900000000    -0.0646757  
C869     C      0.504700000000     0.105630000000     0.656890000000    -0.0277257  
C870     C      0.481600000000     0.117840000000     0.607730000000    -0.066054   
C871     C      0.487550000000     0.108920000000     0.642770000000     0.0180687  
C872     C      0.494710000000     0.113470000000     0.623680000000     0.0192249  
C873     C      0.623000000000     0.041530000000     0.635600000000    -0.0273688  
C874     C      0.614000000000     0.956090000000     0.634920000000    -0.0283963  
C875     C      0.648040000000     0.967970000000     0.627790000000    -0.0273499  
C876     C      0.633990000000     0.985220000000     0.630730000000     0.0167464  
C877     C      0.614630000000     0.978340000000     0.634820000000     0.0199855  
C878     C      0.598700000000     0.991590000000     0.638840000000    -0.0674348  
C879     C      0.589290000000     0.029030000000     0.643110000000    -0.0287452  
C880     C      0.638430000000     0.005880000000     0.630320000000    -0.0632414  
C881     C      0.603110000000     0.012180000000     0.638390000000     0.0206352  
C882     C      0.622400000000     0.019200000000     0.634190000000     0.0172511  
C883     C      0.610800000000     0.165570000000     0.622210000000    -0.0278172  
C884     C      0.610410000000     0.251150000000     0.629630000000    -0.0279927  
C885     C      0.616570000000     0.238780000000     0.595720000000    -0.0276723  
C886     C      0.614490000000     0.221740000000     0.610120000000     0.0179931  
C887     C      0.610940000000     0.228900000000     0.629410000000     0.0192222  
C888     C      0.607690000000     0.215880000000     0.645640000000    -0.0659375  
C889     C      0.604240000000     0.178560000000     0.655800000000    -0.028234   
C890     C      0.615090000000     0.201010000000     0.606060000000    -0.0646079  
C891     C      0.608350000000     0.195230000000     0.641610000000     0.0192525  
C892     C      0.612000000000     0.187920000000     0.622390000000     0.0179771  
C893     C      0.718940000000     0.107200000000     0.888300000000    -0.0280993  
C894     C      0.805040000000     0.100950000000     0.887670000000    -0.0276766  
C895     C      0.791480000000     0.133620000000     0.897130000000    -0.0283207  
C896     C      0.774940000000     0.119540000000     0.892000000000     0.0194529  
C897     C      0.782560000000     0.100840000000     0.886690000000     0.0178884  
C898     C      0.769640000000     0.084690000000     0.882090000000    -0.0645468  
C899     C      0.731810000000     0.074130000000     0.879290000000    -0.0275702  
C900     C      0.754150000000     0.123240000000     0.892880000000    -0.0661447  
C901     C      0.748750000000     0.088420000000     0.882960000000     0.0179417  
C902     C      0.741290000000     0.107210000000     0.888140000000     0.0193596  
C903     C      0.646680000000     0.989040000000     0.875960000000    -0.0282247  
C904     C      0.587200000000     0.929050000000     0.859210000000    -0.0281906  
C905     C      0.620430000000     0.915930000000     0.867740000000    -0.0276794  
C906     C      0.620240000000     0.938280000000     0.869010000000     0.017989   
C907     C      0.601230000000     0.945650000000     0.864220000000     0.0191507  
C908     C      0.597240000000     0.966310000000     0.863560000000    -0.0657795  
C909     C      0.613100000000     0.001530000000     0.867810000000    -0.0273408  
C910     C      0.636420000000     0.951300000000     0.873280000000    -0.0647816  
C911     C      0.613310000000     0.979270000000     0.867970000000     0.0184566  
C912     C      0.632410000000     0.972050000000     0.872650000000     0.0182463  
C913     C      0.647730000000     0.087740000000     0.802310000000    -0.0283254  
C914     C      0.589010000000     0.103490000000     0.741280000000    -0.0275099  
C915     C      0.622920000000     0.095940000000     0.729320000000    -0.028131   
C916     C      0.622370000000     0.096190000000     0.751600000000     0.0193067  
C917     C      0.603080000000     0.100520000000     0.758510000000     0.0179772  
C918     C      0.598690000000     0.101040000000     0.779200000000    -0.0646474  
C919     C      0.614120000000     0.095660000000     0.814850000000    -0.027815   
C920     C      0.638290000000     0.092040000000     0.764840000000    -0.0660413  
C921     C      0.614710000000     0.097050000000     0.792500000000     0.0180231  
C922     C      0.633940000000     0.092620000000     0.785450000000     0.0193332  
C923     C      0.619300000000     0.133800000000     0.012090000000    -0.027848   
C924     C      0.632030000000     0.073870000000     0.951820000000    -0.0282018  
C925     C      0.624910000000     0.107320000000     0.938840000000    -0.0279028  
C926     C      0.623810000000     0.107140000000     0.961210000000     0.018143   
C927     C      0.627790000000     0.088000000000     0.968510000000     0.0191489  
C928     C      0.628680000000     0.084010000000     0.989180000000    -0.0655947  
C929     C      0.626040000000     0.100030000000     0.024480000000    -0.0279194  
C930     C      0.620610000000     0.123430000000     0.974300000000    -0.0647879  
C931     C      0.625310000000     0.100200000000     0.002220000000     0.0188358  
C932     C      0.621440000000     0.119410000000     0.995050000000     0.0183995  
C933     C      0.867100000000     0.634690000000     0.011350000000    -0.0278681  
C934     C      0.851350000000     0.575570000000     0.950970000000    -0.0281382  
C935     C      0.858560000000     0.609040000000     0.938060000000    -0.027681   
C936     C      0.860290000000     0.608650000000     0.960390000000     0.0180995  
C937     C      0.856270000000     0.589500000000     0.967650000000     0.019134   
C938     C      0.856090000000     0.585300000000     0.988300000000    -0.0657112  
C939     C      0.860340000000     0.600890000000     0.023640000000    -0.0278767  
C940     C      0.864220000000     0.624750000000     0.973520000000    -0.0648168  
C941     C      0.860190000000     0.601300000000     0.001360000000     0.0188397  
C942     C      0.864090000000     0.620530000000     0.994250000000     0.0183746  
C943     C      0.876290000000     0.792180000000     0.122300000000    -0.0276491  
C944     C      0.875620000000     0.706620000000     0.129970000000    -0.0281591  
C945     C      0.868890000000     0.718990000000     0.096170000000    -0.0274674  
C946     C      0.871540000000     0.736040000000     0.110470000000     0.0179081  
C947     C      0.875410000000     0.728870000000     0.129700000000     0.0193174  
C948     C      0.879210000000     0.741890000000     0.145810000000    -0.0660597  
C949     C      0.883420000000     0.779190000000     0.155780000000    -0.0283113  
C950     C      0.871150000000     0.756760000000     0.106350000000    -0.064645   
C951     C      0.878770000000     0.762540000000     0.141730000000     0.0193074  
C952     C      0.874790000000     0.769840000000     0.122570000000     0.0179007  
C953     C      0.806420000000     0.600310000000     0.117270000000    -0.0277126  
C954     C      0.720420000000     0.607830000000     0.118240000000    -0.0282151  
C955     C      0.732950000000     0.574200000000     0.125500000000    -0.0275783  
C956     C      0.750040000000     0.588440000000     0.122410000000     0.0179018  
C957     C      0.742790000000     0.607570000000     0.118220000000     0.0193577  
C958     C      0.755820000000     0.623610000000     0.114040000000    -0.0661151  
C959     C      0.793250000000     0.633580000000     0.109570000000    -0.0282645  
C960     C      0.770880000000     0.584380000000     0.122760000000    -0.0645794  
C961     C      0.776570000000     0.619570000000     0.114430000000     0.0193529  
C962     C      0.783970000000     0.600530000000     0.118740000000     0.0179158  
C963     C      0.369550000000     0.239220000000     0.096740000000    -0.0275439  
C964     C      0.385610000000     0.179480000000     0.156430000000    -0.0282315  
C965     C      0.377910000000     0.166230000000     0.123180000000    -0.0277652  
C966     C      0.376380000000     0.188560000000     0.123310000000     0.0179424  
C967     C      0.380680000000     0.196010000000     0.142340000000     0.0193541  
C968     C      0.381040000000     0.216680000000     0.146300000000    -0.0661424  
C969     C      0.376790000000     0.251830000000     0.130350000000    -0.0281671  
C970     C      0.372340000000     0.201520000000     0.107080000000    -0.0646539  
C971     C      0.376840000000     0.229570000000     0.130180000000     0.0193421  
C972     C      0.372670000000     0.222280000000     0.111060000000     0.0179264  
C973     C      0.359230000000     0.357820000000     0.024420000000    -0.0280536  
C974     C      0.357740000000     0.350760000000     0.938740000000    -0.0277274  
C975     C      0.349980000000     0.383940000000     0.952080000000    -0.0281885  
C976     C      0.355030000000     0.369850000000     0.968590000000     0.0192387  
C977     C      0.359360000000     0.350870000000     0.961090000000     0.0180222  
C978     C      0.363520000000     0.334650000000     0.974020000000    -0.0647494  
C979     C      0.366510000000     0.324270000000     0.011720000000    -0.0279445  
C980     C      0.354750000000     0.373780000000     0.989280000000    -0.065829   
C981     C      0.363280000000     0.338600000000     0.994800000000     0.0183886  
C982     C      0.359080000000     0.357680000000     0.002150000000     0.0189188  
C983     C      0.443470000000     0.336920000000     0.096510000000    -0.0283072  
C984     C      0.504110000000     0.352740000000     0.155650000000    -0.0275548  
C985     C      0.516480000000     0.344750000000     0.122100000000    -0.0282349  
C986     C      0.494120000000     0.345100000000     0.122380000000     0.0193591  
C987     C      0.486960000000     0.349690000000     0.141460000000     0.0179012  
C988     C      0.466130000000     0.350450000000     0.145540000000    -0.0645733  
C989     C      0.430490000000     0.345300000000     0.129720000000    -0.027687   
C990     C      0.481000000000     0.340920000000     0.106390000000    -0.0660853  
C991     C      0.452950000000     0.346410000000     0.129450000000     0.0179158  
C992     C      0.460260000000     0.341720000000     0.110450000000     0.019329   
C993     C      0.929870000000     0.344720000000     0.372850000000    -0.027677   
C994     C      0.015870000000     0.345780000000     0.380290000000    -0.0277324  
C995     C      0.003300000000     0.353180000000     0.346690000000    -0.0271884  
C996     C      0.986230000000     0.349990000000     0.360940000000     0.0176255  
C997     C      0.993510000000     0.345720000000     0.380050000000     0.0189791  
C998     C      0.980500000000     0.341440000000     0.396100000000    -0.0659544  
C999     C      0.943080000000     0.336860000000     0.406100000000    -0.0283178  
C1000    C      0.965380000000     0.350330000000     0.356890000000    -0.0645788  
C1001    C      0.959740000000     0.341810000000     0.392080000000     0.0192842  
C1002    C      0.952310000000     0.346200000000     0.373050000000     0.0179026  
C1003    C      0.121990000000     0.416820000000     0.367530000000    -0.0278624  
C1004    C      0.114180000000     0.502380000000     0.367500000000    -0.0281499  
C1005    C      0.147920000000     0.490090000000     0.375260000000    -0.0275392  
C1006    C      0.133690000000     0.473010000000     0.372200000000     0.0179122  
C1007    C      0.114500000000     0.480130000000     0.367730000000     0.0193261  
C1008    C      0.098450000000     0.467070000000     0.363540000000    -0.0660313  
C1009    C      0.088580000000     0.429730000000     0.359380000000    -0.0282524  
C1010    C      0.137830000000     0.452290000000     0.372810000000    -0.064555   
C1011    C      0.102560000000     0.446430000000     0.364200000000     0.0193099  
C1012    C      0.121680000000     0.439170000000     0.368760000000     0.0179838  
C1013    C      0.102440000000     0.279990000000     0.347120000000    -0.0283064  
C1014    C      0.118130000000     0.220000000000     0.406660000000    -0.0276594  
C1015    C      0.110910000000     0.207520000000     0.372990000000    -0.0280868  
C1016    C      0.110990000000     0.229780000000     0.373220000000     0.0193176  
C1017    C      0.115140000000     0.237000000000     0.392370000000     0.0179682  
C1018    C      0.115530000000     0.257740000000     0.396420000000    -0.0645737  
C1019    C      0.110080000000     0.293100000000     0.380440000000    -0.0276842  
C1020    C      0.106870000000     0.242740000000     0.357140000000    -0.0660744  
C1021    C      0.111560000000     0.270770000000     0.380230000000     0.0179144  
C1022    C      0.107300000000     0.263400000000     0.361160000000     0.0193692  
C1023    C      0.089040000000     0.603350000000     0.240250000000    -0.0276149  
C1024    C      0.148090000000     0.587760000000     0.301000000000    -0.0282503  
C1025    C      0.114670000000     0.596120000000     0.313720000000    -0.0276861  
C1026    C      0.115080000000     0.597220000000     0.291350000000     0.0179676  
C1027    C      0.134200000000     0.592530000000     0.284190000000     0.019283   
C1028    C      0.138380000000     0.591650000000     0.263560000000    -0.0659934  
C1029    C      0.122780000000     0.595320000000     0.228120000000    -0.0280714  
C1030    C      0.098990000000     0.601200000000     0.278130000000    -0.0646016  
C1031    C      0.122390000000     0.595770000000     0.250390000000     0.0192542  
C1032    C      0.103200000000     0.600380000000     0.257410000000     0.0179888  
C1033    C      0.016860000000     0.613520000000     0.122150000000    -0.0277955  
C1034    C      0.930850000000     0.613350000000     0.129660000000    -0.0277887  
C1035    C      0.943930000000     0.621870000000     0.096520000000    -0.0283171  
C1036    C      0.960670000000     0.616960000000     0.110460000000     0.0193081  
C1037    C      0.953320000000     0.612180000000     0.129420000000     0.0179023  
C1038    C      0.966450000000     0.607980000000     0.145510000000    -0.064518   
C1039    C      0.004410000000     0.605420000000     0.155640000000    -0.0272521  
C1040    C      0.981420000000     0.617680000000     0.106430000000    -0.0660307  
C1041    C      0.987290000000     0.608680000000     0.141460000000     0.0176194  
C1042    C      0.994500000000     0.613340000000     0.122420000000     0.0190108  
C1043    C      0.118640000000     0.823280000000     0.010770000000    -0.0277816  
C1044    C      0.130390000000     0.883510000000     0.950600000000    -0.0282187  
C1045    C      0.123980000000     0.849940000000     0.937550000000    -0.0278342  
C1046    C      0.122820000000     0.850070000000     0.959920000000     0.0180832  
C1047    C      0.126390000000     0.869280000000     0.967260000000     0.0191657  
C1048    C      0.127110000000     0.873260000000     0.987940000000    -0.0657485  
C1049    C      0.124650000000     0.857160000000     0.023210000000    -0.0278971  
C1050    C      0.119900000000     0.833700000000     0.972990000000    -0.0647235  
C1051    C      0.124020000000     0.856990000000     0.000950000000     0.0188727  
C1052    C      0.120560000000     0.837710000000     0.993750000000     0.0183481  
C1053    C      0.111400000000     0.665130000000     0.121500000000    -0.027585   
C1054    C      0.112960000000     0.750650000000     0.129400000000    -0.0280684  
C1055    C      0.119100000000     0.738320000000     0.095470000000    -0.0276597  
C1056    C      0.116560000000     0.721260000000     0.109760000000     0.0179573  
C1057    C      0.113020000000     0.728400000000     0.129070000000     0.0192992  
C1058    C      0.109290000000     0.715360000000     0.145190000000    -0.0661187  
C1059    C      0.104820000000     0.678090000000     0.155100000000    -0.0284505  
C1060    C      0.116680000000     0.700540000000     0.105590000000    -0.0645453  
C1061    C      0.109470000000     0.694730000000     0.141040000000     0.019454   
C1062    C      0.113130000000     0.687440000000     0.121810000000     0.0178636  
C1063    C      0.180970000000     0.857490000000     0.116360000000    -0.0275278  
C1064    C      0.267060000000     0.851030000000     0.116880000000    -0.0282554  
C1065    C      0.254150000000     0.884270000000     0.125180000000    -0.0274305  
C1066    C      0.237220000000     0.869950000000     0.121620000000     0.0177664  
C1067    C      0.244700000000     0.851050000000     0.116830000000     0.0194413  
C1068    C      0.231860000000     0.834980000000     0.112180000000    -0.0662174  
C1069    C      0.194540000000     0.824650000000     0.107560000000    -0.0282944  
C1070    C      0.216330000000     0.873730000000     0.122160000000    -0.0644525  
C1071    C      0.211060000000     0.838750000000     0.112730000000     0.0194391  
C1072    C      0.203430000000     0.857550000000     0.117660000000     0.0177838  
C1073    C      0.970790000000     0.843420000000     0.122610000000    -0.0277149  
C1074    C      0.056830000000     0.843430000000     0.129710000000    -0.0279363  
C1075    C      0.043550000000     0.834710000000     0.096700000000    -0.0281114  
C1076    C      0.026900000000     0.839710000000     0.110700000000     0.0189954  
C1077    C      0.034360000000     0.844590000000     0.129600000000     0.0182726  
C1078    C      0.021310000000     0.848920000000     0.145720000000    -0.0649782  
C1079    C      0.983400000000     0.851680000000     0.156000000000    -0.0281141  
C1080    C      0.006130000000     0.839020000000     0.106780000000    -0.0652804  
C1081    C      0.000450000000     0.848260000000     0.141780000000     0.0189662  
C1082    C      0.993150000000     0.843500000000     0.122790000000     0.0182066  
C1083    C      0.292820000000     0.323990000000     0.109610000000    -0.028378   
C1084    C      0.232210000000     0.383200000000     0.125050000000    -0.0275408  
C1085    C      0.219820000000     0.349660000000     0.117170000000    -0.028227   
C1086    C      0.242190000000     0.349920000000     0.117580000000     0.0193818  
C1087    C      0.249350000000     0.369000000000     0.122110000000     0.0178551  
C1088    C      0.270180000000     0.373050000000     0.122900000000    -0.0644658  
C1089    C      0.305820000000     0.357190000000     0.117880000000    -0.0276061  
C1090    C      0.255300000000     0.333910000000     0.113490000000    -0.0661677  
C1091    C      0.283350000000     0.356940000000     0.118960000000     0.0178159  
C1092    C      0.276040000000     0.337950000000     0.114330000000     0.019407   
C1093    C      0.114040000000     0.455800000000     0.134480000000    -0.0283694  
C1094    C      0.122510000000     0.541300000000     0.134240000000    -0.027719   
C1095    C      0.088990000000     0.528670000000     0.142360000000    -0.0282301  
C1096    C      0.102840000000     0.511850000000     0.137570000000     0.0193344  
C1097    C      0.122020000000     0.518950000000     0.133010000000     0.017935   
C1098    C      0.138070000000     0.505700000000     0.129020000000    -0.0645357  
C1099    C      0.147880000000     0.467820000000     0.126700000000    -0.0274894  
C1100    C      0.098570000000     0.491240000000     0.138290000000    -0.0661244  
C1101    C      0.133780000000     0.485010000000     0.129690000000     0.0178531  
C1102    C      0.114530000000     0.478050000000     0.134160000000     0.0194493  
C1103    C      0.087820000000     0.355140000000     0.261760000000    -0.0275838  
C1104    C      0.147160000000     0.369730000000     0.201030000000    -0.0282997  
C1105    C      0.113540000000     0.362210000000     0.188290000000    -0.0277239  
C1106    C      0.113940000000     0.360950000000     0.210660000000     0.0179279  
C1107    C      0.133180000000     0.365160000000     0.217820000000     0.0193421  
C1108    C      0.137400000000     0.365810000000     0.238450000000    -0.0660455  
C1109    C      0.121760000000     0.362290000000     0.273880000000    -0.0280896  
C1110    C      0.097780000000     0.357260000000     0.223880000000    -0.0645738  
C1111    C      0.121340000000     0.361970000000     0.251610000000     0.0192822  
C1112    C      0.102030000000     0.357860000000     0.244600000000     0.0179577  
C1113    C      0.109250000000     0.251900000000     0.872200000000    -0.0282141  
C1114    C      0.109670000000     0.166330000000     0.879670000000    -0.027849   
C1115    C      0.102510000000     0.179300000000     0.846190000000    -0.0283161  
C1116    C      0.106950000000     0.195970000000     0.860280000000     0.0192881  
C1117    C      0.110940000000     0.188680000000     0.879430000000     0.0180257  
C1118    C      0.114320000000     0.201760000000     0.895700000000    -0.0646387  
C1119    C      0.116000000000     0.239520000000     0.906000000000    -0.027653   
C1120    C      0.106230000000     0.216620000000     0.856250000000    -0.0659821  
C1121    C      0.113670000000     0.222490000000     0.891640000000     0.0180106  
C1122    C      0.109780000000     0.229650000000     0.872410000000     0.0193121  
C1123    C      0.125380000000     0.349400000000     0.064330000000    -0.027657   
C1124    C      0.123410000000     0.357600000000     0.978770000000    -0.0279552  
C1125    C      0.116890000000     0.323750000000     0.991030000000    -0.0273779  
C1126    C      0.119810000000     0.337920000000     0.008140000000     0.0177913  
C1127    C      0.123580000000     0.357180000000     0.001040000000     0.0192192  
C1128    C      0.127610000000     0.373190000000     0.014110000000    -0.066049   
C1129    C      0.132370000000     0.382910000000     0.051430000000    -0.0282124  
C1130    C      0.119740000000     0.333680000000     0.028860000000    -0.064482   
C1131    C      0.127500000000     0.368970000000     0.034750000000     0.0193324  
C1132    C      0.123610000000     0.349790000000     0.042000000000     0.0178907  
C1133    C      0.040040000000     0.335950000000     0.905810000000    -0.0282329  
C1134    C      0.979510000000     0.352960000000     0.846890000000    -0.0276461  
C1135    C      0.967090000000     0.344410000000     0.880280000000    -0.0278365  
C1136    C      0.989450000000     0.344620000000     0.880010000000     0.0187046  
C1137    C      0.996640000000     0.349540000000     0.861020000000     0.0177256  
C1138    C      0.017480000000     0.350340000000     0.856980000000    -0.0642274  
C1139    C      0.053100000000     0.344930000000     0.872780000000    -0.0277881  
C1140    C      0.002540000000     0.340110000000     0.895930000000    -0.065012   
C1141    C      0.030630000000     0.345970000000     0.873010000000     0.0180287  
C1142    C      0.023290000000     0.340940000000     0.891910000000     0.0191249  
C1143    C      0.177650000000     0.358530000000     0.885540000000    -0.0276396  
C1144    C      0.263670000000     0.351200000000     0.885180000000    -0.0282236  
C1145    C      0.251140000000     0.384880000000     0.878170000000    -0.0275079  
C1146    C      0.234050000000     0.370570000000     0.880960000000     0.0178731  
C1147    C      0.241310000000     0.351420000000     0.885000000000     0.0193757  
C1148    C      0.228280000000     0.335300000000     0.888900000000    -0.066088   
C1149    C      0.190840000000     0.325210000000     0.892990000000    -0.0282454  
C1150    C      0.213210000000     0.374600000000     0.880480000000    -0.0644912  
C1151    C      0.207520000000     0.339300000000     0.888380000000     0.0193665  
C1152    C      0.200110000000     0.358370000000     0.884220000000     0.017835   
Cd1      Cd     0.115670000000     0.317930000000     0.912490000000     0.50856    
Cd2      Cd     0.153380000000     0.389330000000     0.126050000000     0.508361   
Cd3      Cd     0.119100000000     0.816780000000     0.089270000000     0.508679   
Cd4      Cd     0.083250000000     0.603710000000     0.161700000000     0.508398   
Cd5      Cd     0.082120000000     0.354680000000     0.340310000000     0.508486   
Cd6      Cd     0.368130000000     0.317660000000     0.090220000000     0.508589   
Cd7      Cd     0.868440000000     0.640560000000     0.089890000000     0.508542   
Cd8      Cd     0.652980000000     0.067500000000     0.877200000000     0.508563   
Cd9      Cd     0.583550000000     0.103990000000     0.662750000000     0.508364   
Cd10     Cd     0.368670000000     0.141130000000     0.591430000000     0.508514   
Cd11     Cd     0.082000000000     0.854270000000     0.661160000000     0.508353   
Cd12     Cd     0.653100000000     0.889450000000     0.626720000000     0.508372   
Cd13     Cd     0.580310000000     0.854010000000     0.840330000000     0.508526   
Cd14     Cd     0.904570000000     0.853680000000     0.162230000000     0.508543   
Cd15     Cd     0.582450000000     0.603840000000     0.341080000000     0.508456   
Cd16     Cd     0.653240000000     0.389690000000     0.376240000000     0.508375   
Cd17     Cd     0.654120000000     0.567930000000     0.126940000000     0.508461   
Cd18     Cd     0.582940000000     0.353880000000     0.161710000000     0.508353   
Cd19     Cd     0.832260000000     0.890040000000     0.376050000000     0.508576   
Cd20     Cd     0.403300000000     0.854690000000     0.341380000000     0.5084     
Cd21     Cd     0.618040000000     0.817290000000     0.412940000000     0.508553   
Cd22     Cd     0.402420000000     0.354750000000     0.663400000000     0.508577   
Cd23     Cd     0.616410000000     0.317230000000     0.589390000000     0.50857    
Cd24     Cd     0.117200000000     0.640550000000     0.589530000000     0.508497   
Cd25     Cd     0.153940000000     0.568560000000     0.376120000000     0.508471   
Cd26     Cd     0.368170000000     0.641500000000     0.414140000000     0.508566   
Cd27     Cd     0.331790000000     0.568770000000     0.627320000000     0.50842    
Cd28     Cd     0.151180000000     0.890620000000     0.876020000000     0.508431   
Cd29     Cd     0.329980000000     0.391240000000     0.877270000000     0.508467   
Cd30     Cd     0.365910000000     0.818880000000     0.913370000000     0.508496   
Cd31     Cd     0.401300000000     0.605110000000     0.842060000000     0.508352   
Cd32     Cd     0.867150000000     0.141790000000     0.914100000000     0.508826   
Cd33     Cd     0.616090000000     0.640820000000     0.913830000000     0.508612   
Cd34     Cd     0.867370000000     0.816980000000     0.589540000000     0.508577   
Cd35     Cd     0.902880000000     0.603680000000     0.662310000000     0.508511   
Cd36     Cd     0.830580000000     0.569160000000     0.876290000000     0.508382   
Cd37     Cd     0.900660000000     0.354730000000     0.840950000000     0.508275   
Cd38     Cd     0.867830000000     0.317400000000     0.413120000000     0.508481   
Cd39     Cd     0.830940000000     0.389950000000     0.626250000000     0.508553   
Cd40     Cd     0.332960000000     0.891100000000     0.127120000000     0.508543   
Cd41     Cd     0.904600000000     0.103780000000     0.341820000000     0.508382   
Cd42     Cd     0.081360000000     0.104770000000     0.839930000000     0.508566   
Cd43     Cd     0.119270000000     0.141550000000     0.412960000000     0.508662   
Cd44     Cd     0.154470000000     0.067780000000     0.626360000000     0.508667   
Cd45     Cd     0.834730000000     0.068100000000     0.127150000000     0.508381   
Cd46     Cd     0.619940000000     0.140330000000     0.090550000000     0.508555   
Cd47     Cd     0.333780000000     0.069210000000     0.377540000000     0.508414   
Cd48     Cd     0.405540000000     0.104690000000     0.163600000000     0.50851    
H1       H      0.377800000000     0.111120000000     0.322510000000     0.0523218  
H2       H      0.327940000000     0.100560000000     0.303570000000     0.0515563  
H3       H      0.335100000000     0.090180000000     0.259780000000     0.0505056  
H4       H      0.404940000000     0.104340000000     0.285580000000     0.0505821  
H5       H      0.406630000000     0.119340000000     0.242350000000     0.0529422  
H6       H      0.360650000000     0.082560000000     0.224060000000     0.0525703  
H7       H      0.385170000000     0.084990000000     0.320710000000     0.0535488  
H8       H      0.333560000000     0.074070000000     0.300940000000     0.0539201  
H9       H      0.355530000000     0.109270000000     0.224090000000     0.0531495  
H10      H      0.412070000000     0.092700000000     0.242490000000     0.052853   
H11      H      0.484810000000     0.117000000000     0.169740000000     0.0528039  
H12      H      0.465910000000     0.127660000000     0.118800000000     0.052434   
H13      H      0.501580000000     0.120280000000     0.092980000000     0.0504231  
H14      H      0.528040000000     0.105330000000     0.162180000000     0.0505108  
H15      H      0.563250000000     0.124750000000     0.142340000000     0.0534686  
H16      H      0.545390000000     0.109870000000     0.085350000000     0.0515924  
H17      H      0.484650000000     0.090410000000     0.164070000000     0.0530055  
H18      H      0.465920000000     0.101010000000     0.113400000000     0.0532121  
H19      H      0.542980000000     0.136300000000     0.091280000000     0.0538399  
H20      H      0.564830000000     0.098680000000     0.134760000000     0.0524339  
H21      H      0.697080000000     0.139310000000     0.092980000000     0.0537749  
H22      H      0.676810000000     0.088880000000     0.106690000000     0.0534376  
H23      H      0.712230000000     0.069640000000     0.126450000000     0.0506236  
H24      H      0.738740000000     0.138050000000     0.108560000000     0.0504779  
H25      H      0.774310000000     0.111800000000     0.101840000000     0.0523046  
H26      H      0.755680000000     0.068140000000     0.141000000000     0.0530652  
H27      H      0.695140000000     0.146250000000     0.119230000000     0.0516082  
H28      H      0.675660000000     0.097360000000     0.132530000000     0.0523835  
H29      H      0.755380000000     0.061490000000     0.114620000000     0.0527988  
H30      H      0.774490000000     0.118340000000     0.128250000000     0.0532536  
H31      H      0.112400000000     0.111470000000     0.571240000000     0.0523711  
H32      H      0.124820000000     0.062490000000     0.551630000000     0.0516381  
H33      H      0.135800000000     0.070700000000     0.508220000000     0.050552   
H34      H      0.119100000000     0.139300000000     0.534960000000     0.0505803  
H35      H      0.104670000000     0.141330000000     0.491600000000     0.0529754  
H36      H      0.143220000000     0.097000000000     0.473010000000     0.0523812  
H37      H      0.138470000000     0.119540000000     0.570130000000     0.0534646  
H38      H      0.151310000000     0.068900000000     0.549680000000     0.053882   
H39      H      0.116570000000     0.091020000000     0.472630000000     0.0532943  
H40      H      0.131290000000     0.147460000000     0.492100000000     0.0526856  
H41      H      0.273240000000     0.113730000000     0.400980000000     0.0523428  
H42      H      0.254350000000     0.063120000000     0.389160000000     0.0528262  
H43      H      0.211340000000     0.070990000000     0.376980000000     0.0505538  
H44      H      0.237750000000     0.139790000000     0.393490000000     0.050454   
H45      H      0.196150000000     0.141360000000     0.408940000000     0.0539761  
H46      H      0.174710000000     0.098600000000     0.370300000000     0.0522918  
H47      H      0.273660000000     0.119620000000     0.374410000000     0.0531718  
H48      H      0.254920000000     0.069210000000     0.362650000000     0.0530743  
H49      H      0.175950000000     0.090500000000     0.396260000000     0.0535956  
H50      H      0.194030000000     0.147670000000     0.382550000000     0.0515445  
H51      H      0.111010000000     0.109900000000     0.681460000000     0.0524089  
H52      H      0.160170000000     0.096960000000     0.701010000000     0.0516919  
H53      H      0.151930000000     0.086600000000     0.744520000000     0.0505167  
H54      H      0.083150000000     0.104050000000     0.717920000000     0.0505945  
H55      H      0.081580000000     0.118900000000     0.761140000000     0.0529642  
H56      H      0.125560000000     0.080000000000     0.779930000000     0.052477   
H57      H      0.102590000000     0.084070000000     0.682840000000     0.0534591  
H58      H      0.153290000000     0.070730000000     0.703170000000     0.0538484  
H59      H      0.131990000000     0.106430000000     0.779990000000     0.0532426  
H60      H      0.074940000000     0.092520000000     0.760930000000     0.0527893  
H61      H      0.860580000000     0.080390000000     0.281040000000     0.0524028  
H62      H      0.911810000000     0.091760000000     0.262940000000     0.0528043  
H63      H      0.904650000000     0.103600000000     0.219880000000     0.0505681  
H64      H      0.835000000000     0.087770000000     0.245220000000     0.0504824  
H65      H      0.833970000000     0.072030000000     0.203850000000     0.0539038  
H66      H      0.877590000000     0.110170000000     0.182930000000     0.0522684  
H67      H      0.854820000000     0.106980000000     0.281150000000     0.0531392  
H68      H      0.905820000000     0.118290000000     0.263180000000     0.052976   
H69      H      0.885450000000     0.084170000000     0.184460000000     0.0535519  
H70      H      0.827840000000     0.098430000000     0.201500000000     0.0515863  
H71      H      0.965060000000     0.127720000000     0.386060000000     0.0522582  
H72      H      0.983760000000     0.116140000000     0.335240000000     0.0528637  
H73      H      0.027030000000     0.104760000000     0.342800000000     0.0507467  
H74      H      0.000900000000     0.120950000000     0.411840000000     0.0503433  
H75      H      0.042270000000     0.137140000000     0.413000000000     0.0538282  
H76      H      0.063990000000     0.098780000000     0.370110000000     0.0524642  
H77      H      0.965170000000     0.101180000000     0.391970000000     0.0530133  
H78      H      0.983700000000     0.089660000000     0.341420000000     0.0530036  
H79      H      0.062260000000     0.124690000000     0.362030000000     0.0535691  
H80      H      0.044830000000     0.110830000000     0.419410000000     0.0515844  
H81      H      0.411400000000     0.030270000000     0.133610000000     0.0518127  
H82      H      0.361950000000     0.049570000000     0.121590000000     0.0523643  
H83      H      0.334350000000     0.012990000000     0.127880000000     0.050404   
H84      H      0.403560000000     0.986680000000     0.144040000000     0.0505926  
H85      H      0.383380000000     0.951170000000     0.124500000000     0.0531778  
H86      H      0.326540000000     0.969990000000     0.139520000000     0.0525446  
H87      H      0.405030000000     0.027970000000     0.159980000000     0.0540007  
H88      H      0.353950000000     0.048070000000     0.147570000000     0.0534685  
H89      H      0.332680000000     0.969820000000     0.113000000000     0.0527463  
H90      H      0.377470000000     0.951190000000     0.151070000000     0.0523813  
H91      H      0.862030000000     0.158620000000     0.385450000000     0.0522978  
H92      H      0.872610000000     0.177550000000     0.335800000000     0.0515413  
H93      H      0.882870000000     0.221360000000     0.342930000000     0.0504477  
H94      H      0.868730000000     0.195530000000     0.412490000000     0.0505238  
H95      H      0.853520000000     0.238660000000     0.414190000000     0.0529047  
H96      H      0.890380000000     0.257090000000     0.368370000000     0.0524763  
H97      H      0.888270000000     0.160500000000     0.392830000000     0.053502   
H98      H      0.899210000000     0.180290000000     0.341410000000     0.0538742  
H99      H      0.863530000000     0.256950000000     0.363290000000     0.0531492  
H100     H      0.880310000000     0.238620000000     0.419590000000     0.0527471  
H101     H      0.836920000000     0.390070000000     0.549830000000     0.0539992  
H102     H      0.847880000000     0.338790000000     0.570000000000     0.0535684  
H103     H      0.867360000000     0.318920000000     0.535080000000     0.0505382  
H104     H      0.853210000000     0.388240000000     0.508760000000     0.0504832  
H105     H      0.845590000000     0.362580000000     0.473220000000     0.0524252  
H106     H      0.882480000000     0.316900000000     0.491880000000     0.0529038  
H107     H      0.863530000000     0.395660000000     0.552580000000     0.0515143  
H108     H      0.874100000000     0.346230000000     0.571850000000     0.0522322  
H109     H      0.855700000000     0.311520000000     0.492060000000     0.0527839  
H110     H      0.872440000000     0.367620000000     0.473220000000     0.0530698  
H111     H      0.850680000000     0.351720000000     0.780440000000     0.0531834  
H112     H      0.901440000000     0.339420000000     0.762460000000     0.05293    
H113     H      0.900400000000     0.353740000000     0.719010000000     0.0505025  
H114     H      0.831070000000     0.370880000000     0.744360000000     0.0504753  
H115     H      0.823650000000     0.359930000000     0.700730000000     0.0515664  
H116     H      0.881440000000     0.373180000000     0.683490000000     0.0535343  
H117     H      0.856850000000     0.378210000000     0.780030000000     0.0523925  
H118     H      0.907860000000     0.365850000000     0.761920000000     0.0527012  
H119     H      0.873150000000     0.347300000000     0.682150000000     0.0522302  
H120     H      0.830170000000     0.386250000000     0.702880000000     0.0539278  
H121     H      0.829360000000     0.490610000000     0.891000000000     0.0529188  
H122     H      0.880390000000     0.508590000000     0.879870000000     0.0531422  
H123     H      0.900350000000     0.472660000000     0.860810000000     0.0504287  
H124     H      0.830640000000     0.447310000000     0.876370000000     0.0505095  
H125     H      0.857720000000     0.410400000000     0.883110000000     0.0523018  
H126     H      0.901500000000     0.431320000000     0.845130000000     0.0538301  
H127     H      0.823490000000     0.490290000000     0.864420000000     0.0527034  
H128     H      0.874770000000     0.508400000000     0.853240000000     0.0523768  
H129     H      0.907480000000     0.428980000000     0.871590000000     0.0515079  
H130     H      0.849950000000     0.411930000000     0.857060000000     0.0535968  
H131     H      0.852580000000     0.607620000000     0.722460000000     0.0531521  
H132     H      0.903500000000     0.618500000000     0.740910000000     0.0529533  
H133     H      0.901700000000     0.604040000000     0.784280000000     0.0505006  
H134     H      0.832170000000     0.588780000000     0.758270000000     0.0504784  
H135     H      0.824650000000     0.599700000000     0.801870000000     0.05152    
H136     H      0.881940000000     0.584960000000     0.819560000000     0.0535243  
H137     H      0.858050000000     0.580980000000     0.722770000000     0.0523618  
H138     H      0.909200000000     0.591910000000     0.741360000000     0.0527208  
H139     H      0.874280000000     0.611030000000     0.820930000000     0.0522593  
H140     H      0.830530000000     0.573230000000     0.799660000000     0.053879   
H141     H      0.875320000000     0.450230000000     0.649950000000     0.0524069  
H142     H      0.824430000000     0.468890000000     0.637900000000     0.0527027  
H143     H      0.832250000000     0.511800000000     0.626090000000     0.050522   
H144     H      0.901390000000     0.485710000000     0.642880000000     0.0504588  
H145     H      0.902680000000     0.527040000000     0.658610000000     0.0538703  
H146     H      0.859830000000     0.548420000000     0.619840000000     0.0523227  
H147     H      0.881400000000     0.450020000000     0.623420000000     0.0531349  
H148     H      0.830770000000     0.468520000000     0.611430000000     0.052893   
H149     H      0.851610000000     0.547000000000     0.645760000000     0.0535014  
H150     H      0.909200000000     0.529280000000     0.632280000000     0.0515978  
H151     H      0.890310000000     0.756780000000     0.634340000000     0.0524282  
H152     H      0.879180000000     0.737960000000     0.583510000000     0.0526585  
H153     H      0.867090000000     0.695100000000     0.591220000000     0.050509   
H154     H      0.882620000000     0.721440000000     0.660300000000     0.0504684  
H155     H      0.898350000000     0.680150000000     0.662050000000     0.0539287  
H156     H      0.860240000000     0.658580000000     0.618760000000     0.0522846  
H157     H      0.863560000000     0.757090000000     0.639870000000     0.053184   
H158     H      0.852480000000     0.738420000000     0.589280000000     0.052888   
H159     H      0.886390000000     0.659980000000     0.610980000000     0.0535386  
H160     H      0.871790000000     0.677870000000     0.668030000000     0.0515131  
H161     H      0.751500000000     0.568860000000     0.862170000000     0.0529672  
H162     H      0.770140000000     0.619360000000     0.873530000000     0.053115   
H163     H      0.734430000000     0.639380000000     0.893180000000     0.0504669  
H164     H      0.708140000000     0.570410000000     0.877190000000     0.0505248  
H165     H      0.671260000000     0.597790000000     0.871040000000     0.0523648  
H166     H      0.693040000000     0.640720000000     0.909310000000     0.0538913  
H167     H      0.751380000000     0.562790000000     0.888690000000     0.0528359  
H168     H      0.770190000000     0.613550000000     0.900120000000     0.0523868  
H169     H      0.690530000000     0.647020000000     0.882950000000     0.0515867  
H170     H      0.672930000000     0.589790000000     0.897000000000     0.0535269  
H171     H      0.850560000000     0.119480000000     0.071090000000     0.0536402  
H172     H      0.841390000000     0.067710000000     0.050940000000     0.0541237  
H173     H      0.857100000000     0.070240000000     0.009780000000     0.0504503  
H174     H      0.868760000000     0.140050000000     0.036030000000     0.0504716  
H175     H      0.856170000000     0.147020000000     0.993250000000     0.0527764  
H176     H      0.874950000000     0.091710000000     0.973980000000     0.0530914  
H177     H      0.877040000000     0.112910000000     0.072710000000     0.0521408  
H178     H      0.868220000000     0.063230000000     0.053560000000     0.0514394  
H179     H      0.847910000000     0.095590000000     0.974450000000     0.0525356  
H180     H      0.883150000000     0.142740000000     0.992570000000     0.0529159  
H181     H      0.886440000000     0.202080000000     0.867970000000     0.0525217  
H182     H      0.878350000000     0.220750000000     0.919540000000     0.0527923  
H183     H      0.866150000000     0.263620000000     0.912720000000     0.0504792  
H184     H      0.877570000000     0.237550000000     0.842760000000     0.0504821  
H185     H      0.893670000000     0.278560000000     0.840380000000     0.053968   
H186     H      0.858210000000     0.300440000000     0.885700000000     0.0521918  
H187     H      0.859390000000     0.201850000000     0.864130000000     0.053016   
H188     H      0.851370000000     0.220300000000     0.915250000000     0.0528659  
H189     H      0.884680000000     0.298570000000     0.892240000000     0.0536518  
H190     H      0.866860000000     0.281400000000     0.835890000000     0.0513436  
H191     H      0.944340000000     0.140430000000     0.911630000000     0.053685   
H192     H      0.923560000000     0.126080000000     0.861650000000     0.0532254  
H193     H      0.958810000000     0.105980000000     0.842250000000     0.0504864  
H194     H      0.986010000000     0.124770000000     0.910210000000     0.0503995  
H195     H      0.021370000000     0.130980000000     0.883530000000     0.0523402  
H196     H      0.002190000000     0.091290000000     0.840580000000     0.0530488  
H197     H      0.942570000000     0.114310000000     0.919010000000     0.051694   
H198     H      0.922520000000     0.100340000000     0.870390000000     0.0524133  
H199     H      0.001990000000     0.117550000000     0.833550000000     0.0527893  
H200     H      0.021470000000     0.104700000000     0.890490000000     0.0533481  
H201     H      0.559220000000     0.624120000000     0.862870000000     0.0535674  
H202     H      0.539140000000     0.637270000000     0.913670000000     0.0539101  
H203     H      0.497500000000     0.621890000000     0.912320000000     0.0505078  
H204     H      0.523740000000     0.604730000000     0.843560000000     0.0505024  
H205     H      0.480710000000     0.616870000000     0.835660000000     0.0527238  
H206     H      0.461530000000     0.602700000000     0.892390000000     0.0532641  
H207     H      0.560410000000     0.598240000000     0.871160000000     0.0523069  
H208     H      0.541190000000     0.610950000000     0.920220000000     0.0515942  
H209     H      0.461940000000     0.629170000000     0.886210000000     0.0523806  
H210     H      0.480170000000     0.590430000000     0.842000000000     0.0529814  
H211     H      0.375830000000     0.847970000000     0.071770000000     0.0521635  
H212     H      0.364420000000     0.897210000000     0.052770000000     0.0513981  
H213     H      0.352670000000     0.889660000000     0.009280000000     0.0504543  
H214     H      0.368070000000     0.820490000000     0.035290000000     0.0504734  
H215     H      0.381800000000     0.818430000000     0.991660000000     0.053037   
H216     H      0.344010000000     0.863790000000     0.974060000000     0.0523617  
H217     H      0.349620000000     0.840300000000     0.070750000000     0.0537175  
H218     H      0.337760000000     0.891560000000     0.050800000000     0.0540605  
H219     H      0.370790000000     0.869100000000     0.973190000000     0.0531842  
H220     H      0.355060000000     0.812930000000     0.992660000000     0.0527269  
H221     H      0.396290000000     0.681560000000     0.841570000000     0.0539544  
H222     H      0.384910000000     0.661790000000     0.892950000000     0.0535409  
H223     H      0.365710000000     0.697000000000     0.912590000000     0.0505259  
H224     H      0.380460000000     0.722800000000     0.843140000000     0.0504847  
H225     H      0.388340000000     0.758370000000     0.868710000000     0.0524579  
H226     H      0.351030000000     0.740310000000     0.914320000000     0.052946   
H227     H      0.369680000000     0.679110000000     0.835890000000     0.0515193  
H228     H      0.358690000000     0.660220000000     0.885420000000     0.0522125  
H229     H      0.377790000000     0.739930000000     0.919830000000     0.0527374  
H230     H      0.361530000000     0.758590000000     0.863490000000     0.0531801  
H231     H      0.357450000000     0.550060000000     0.884190000000     0.0522322  
H232     H      0.407360000000     0.531280000000     0.873770000000     0.0515408  
H233     H      0.400330000000     0.487500000000     0.863270000000     0.0504868  
H234     H      0.330390000000     0.513110000000     0.877250000000     0.0505663  
H235     H      0.328730000000     0.469870000000     0.892170000000     0.0529543  
H236     H      0.374870000000     0.451780000000     0.855460000000     0.0525104  
H237     H      0.350130000000     0.548270000000     0.858020000000     0.0534999  
H238     H      0.401860000000     0.528640000000     0.847240000000     0.0539238  
H239     H      0.379890000000     0.451740000000     0.882210000000     0.0531109  
H240     H      0.323380000000     0.470090000000     0.865490000000     0.052807   
H241     H      0.131700000000     0.047720000000     0.857090000000     0.0536391  
H242     H      0.080180000000     0.028300000000     0.844920000000     0.0541786  
H243     H      0.081240000000     0.987040000000     0.860690000000     0.0506465  
H244     H      0.150860000000     0.012420000000     0.876550000000     0.0504674  
H245     H      0.158080000000     0.969490000000     0.864650000000     0.0526148  
H246     H      0.101160000000     0.951100000000     0.879880000000     0.0532055  
H247     H      0.123720000000     0.049370000000     0.883070000000     0.0522928  
H248     H      0.074060000000     0.030810000000     0.871330000000     0.0517469  
H249     H      0.106830000000     0.951320000000     0.853260000000     0.052462   
H250     H      0.152090000000     0.969100000000     0.891190000000     0.052803   
H251     H      0.230330000000     0.891000000000     0.862340000000     0.0528789  
H252     H      0.211660000000     0.840570000000     0.874180000000     0.0532144  
H253     H      0.247320000000     0.820730000000     0.893990000000     0.0504498  
H254     H      0.273670000000     0.889520000000     0.877330000000     0.0504792  
H255     H      0.310460000000     0.862070000000     0.871300000000     0.0523102  
H256     H      0.288790000000     0.819490000000     0.910040000000     0.0538256  
H257     H      0.230380000000     0.897290000000     0.888810000000     0.0526898  
H258     H      0.211570000000     0.846670000000     0.900690000000     0.0523527  
H259     H      0.291100000000     0.812910000000     0.883730000000     0.0516187  
H260     H      0.308940000000     0.870210000000     0.897220000000     0.0533805  
H261     H      0.324700000000     0.598980000000     0.701660000000     0.0515836  
H262     H      0.374400000000     0.611040000000     0.683110000000     0.0522823  
H263     H      0.401470000000     0.604710000000     0.720110000000     0.0505198  
H264     H      0.331900000000     0.588430000000     0.745390000000     0.0504673  
H265     H      0.351550000000     0.607840000000     0.781310000000     0.0531216  
H266     H      0.408670000000     0.592980000000     0.763190000000     0.0527533  
H267     H      0.331030000000     0.572630000000     0.704040000000     0.0538448  
H268     H      0.382420000000     0.585090000000     0.684690000000     0.0534811  
H269     H      0.402490000000     0.619470000000     0.763380000000     0.0529548  
H270     H      0.357490000000     0.581300000000     0.781260000000     0.0523498  
H271     H      0.364450000000     0.563310000000     0.553660000000     0.0514958  
H272     H      0.374630000000     0.612820000000     0.572910000000     0.0522799  
H273     H      0.367690000000     0.640070000000     0.536120000000     0.0505297  
H274     H      0.354110000000     0.570620000000     0.509830000000     0.0504154  
H275     H      0.373200000000     0.591380000000     0.474300000000     0.0531101  
H276     H      0.356000000000     0.647350000000     0.493080000000     0.0528049  
H277     H      0.337800000000     0.568690000000     0.550890000000     0.05395    
H278     H      0.348350000000     0.620060000000     0.571050000000     0.053585   
H279     H      0.382820000000     0.642180000000     0.492920000000     0.0529287  
H280     H      0.346310000000     0.596200000000     0.474270000000     0.0524857  
H281     H      0.233140000000     0.562350000000     0.389040000000     0.0528107  
H282     H      0.213980000000     0.612840000000     0.400940000000     0.0523628  
H283     H      0.249610000000     0.638980000000     0.394460000000     0.0504575  
H284     H      0.276420000000     0.570380000000     0.377750000000     0.0504917  
H285     H      0.311510000000     0.589850000000     0.397840000000     0.053358   
H286     H      0.293390000000     0.647080000000     0.384410000000     0.0516481  
H287     H      0.233150000000     0.568700000000     0.362580000000     0.0529581  
H288     H      0.214150000000     0.618990000000     0.374430000000     0.0531556  
H289     H      0.291030000000     0.640410000000     0.410690000000     0.0537822  
H290     H      0.313080000000     0.598050000000     0.371930000000     0.0523812  
H291     H      0.139780000000     0.595680000000     0.529290000000     0.0524916  
H292     H      0.129200000000     0.646670000000     0.510570000000     0.0527399  
H293     H      0.117450000000     0.639240000000     0.467570000000     0.0505446  
H294     H      0.132250000000     0.570000000000     0.493730000000     0.0505142  
H295     H      0.148390000000     0.568340000000     0.452580000000     0.0539463  
H296     H      0.110790000000     0.611940000000     0.430800000000     0.0523293  
H297     H      0.112980000000     0.590400000000     0.529360000000     0.0531635  
H298     H      0.102460000000     0.641070000000     0.510820000000     0.0529375  
H299     H      0.136960000000     0.619560000000     0.432530000000     0.0536243  
H300     H      0.121820000000     0.562560000000     0.449960000000     0.0515213  
H301     H      0.062110000000     0.598360000000     0.633140000000     0.052419   
H302     H      0.042600000000     0.610130000000     0.583890000000     0.051602   
H303     H      0.998770000000     0.620360000000     0.591720000000     0.0499633  
H304     H      0.025360000000     0.604600000000     0.660680000000     0.0505339  
H305     H      0.982020000000     0.589580000000     0.662460000000     0.0528463  
H306     H      0.963110000000     0.627340000000     0.617690000000     0.0523552  
H307     H      0.060500000000     0.624330000000     0.641050000000     0.0535137  
H308     H      0.040160000000     0.636480000000     0.590160000000     0.0538578  
H309     H      0.963180000000     0.600760000000     0.611950000000     0.0530804  
H310     H      0.982130000000     0.616100000000     0.668460000000     0.052684   
H311     H      0.194270000000     0.640110000000     0.593350000000     0.0537715  
H312     H      0.174110000000     0.589300000000     0.605900000000     0.0534298  
H313     H      0.209330000000     0.569930000000     0.625780000000     0.0505037  
H314     H      0.235700000000     0.638800000000     0.609470000000     0.0504483  
H315     H      0.271460000000     0.612880000000     0.602700000000     0.0523236  
H316     H      0.252640000000     0.568400000000     0.640840000000     0.0529372  
H317     H      0.191860000000     0.646560000000     0.619690000000     0.0515742  
H318     H      0.172510000000     0.597360000000     0.631840000000     0.0523547  
H319     H      0.252620000000     0.562220000000     0.614340000000     0.0527443  
H320     H      0.271340000000     0.618870000000     0.629240000000     0.0531696  
H321     H      0.751830000000     0.390040000000     0.639820000000     0.0529466  
H322     H      0.770700000000     0.339700000000     0.627740000000     0.0531891  
H323     H      0.735070000000     0.319770000000     0.608060000000     0.0505061  
H324     H      0.708450000000     0.388380000000     0.625030000000     0.0504946  
H325     H      0.671840000000     0.360720000000     0.631180000000     0.0523894  
H326     H      0.693510000000     0.318340000000     0.592230000000     0.053826   
H327     H      0.751670000000     0.396390000000     0.613360000000     0.0527162  
H328     H      0.770670000000     0.345930000000     0.601250000000     0.0522924  
H329     H      0.691410000000     0.311690000000     0.618540000000     0.0516789  
H330     H      0.673160000000     0.368910000000     0.605260000000     0.053395   
H331     H      0.358020000000     0.378860000000     0.723550000000     0.0524148  
H332     H      0.408930000000     0.367170000000     0.742330000000     0.0527125  
H333     H      0.401120000000     0.355600000000     0.785400000000     0.050495   
H334     H      0.331940000000     0.371940000000     0.759110000000     0.0504894  
H335     H      0.330560000000     0.387890000000     0.800440000000     0.0538479  
H336     H      0.373540000000     0.349400000000     0.822010000000     0.0523181  
H337     H      0.352020000000     0.352330000000     0.723560000000     0.0532123  
H338     H      0.402710000000     0.340690000000     0.742200000000     0.0528782  
H339     H      0.381590000000     0.375350000000     0.820530000000     0.0533786  
H340     H      0.324100000000     0.361570000000     0.802710000000     0.0516906  
H341     H      0.481610000000     0.368500000000     0.662840000000     0.0528751  
H342     H      0.462360000000     0.356250000000     0.612690000000     0.0531931  
H343     H      0.497760000000     0.336250000000     0.592610000000     0.0504982  
H344     H      0.524930000000     0.353490000000     0.660990000000     0.0505089  
H345     H      0.561380000000     0.359280000000     0.633040000000     0.0523994  
H346     H      0.539240000000     0.320190000000     0.591030000000     0.0538073  
H347     H      0.481720000000     0.342100000000     0.669370000000     0.052719   
H348     H      0.462310000000     0.329810000000     0.619030000000     0.0523521  
H349     H      0.541430000000     0.346420000000     0.584160000000     0.051684   
H350     H      0.559990000000     0.333440000000     0.641410000000     0.0533692  
H351     H      0.359670000000     0.410100000000     0.620570000000     0.0522687  
H352     H      0.409240000000     0.428870000000     0.632520000000     0.0515561  
H353     H      0.401850000000     0.472550000000     0.643190000000     0.0504263  
H354     H      0.332370000000     0.446930000000     0.627050000000     0.0505448  
H355     H      0.331060000000     0.490230000000     0.612410000000     0.0529871  
H356     H      0.376080000000     0.508190000000     0.650540000000     0.0524203  
H357     H      0.351640000000     0.411640000000     0.646550000000     0.0535634  
H358     H      0.403010000000     0.431260000000     0.658910000000     0.0539299  
H359     H      0.381900000000     0.508400000000     0.623950000000     0.0531595  
H360     H      0.324960000000     0.489870000000     0.638930000000     0.0527941  
H361     H      0.375590000000     0.848270000000     0.182540000000     0.0522381  
H362     H      0.326010000000     0.860290000000     0.201290000000     0.0515392  
H363     H      0.333380000000     0.870860000000     0.245020000000     0.0504531  
H364     H      0.402850000000     0.854630000000     0.219440000000     0.0504879  
H365     H      0.404080000000     0.839930000000     0.262760000000     0.0529556  
H366     H      0.359110000000     0.878080000000     0.280740000000     0.05236    
H367     H      0.383660000000     0.874210000000     0.184130000000     0.0534891  
H368     H      0.332300000000     0.886640000000     0.203710000000     0.053882   
H369     H      0.353230000000     0.851520000000     0.280890000000     0.0531227  
H370     H      0.410230000000     0.866420000000     0.262450000000     0.0527459  
H371     H      0.482490000000     0.841930000000     0.334710000000     0.0527042  
H372     H      0.463730000000     0.830100000000     0.385400000000     0.0523096  
H373     H      0.499490000000     0.836890000000     0.411330000000     0.0504102  
H374     H      0.525760000000     0.853440000000     0.342430000000     0.0505     
H375     H      0.561050000000     0.833600000000     0.361730000000     0.0534101  
H376     H      0.543300000000     0.847200000000     0.419080000000     0.0515416  
H377     H      0.482410000000     0.868390000000     0.340980000000     0.052895   
H378     H      0.463780000000     0.856610000000     0.391480000000     0.0531286  
H379     H      0.540970000000     0.820890000000     0.412570000000     0.053762   
H380     H      0.562580000000     0.859510000000     0.369850000000     0.0523012  
H381     H      0.389790000000     0.701750000000     0.368820000000     0.0524254  
H382     H      0.380080000000     0.720470000000     0.420010000000     0.0527567  
H383     H      0.368010000000     0.763380000000     0.412750000000     0.0504984  
H384     H      0.381610000000     0.737210000000     0.343210000000     0.0504558  
H385     H      0.397550000000     0.778360000000     0.341200000000     0.0540191  
H386     H      0.360700000000     0.800070000000     0.385490000000     0.0522392  
H387     H      0.362890000000     0.701550000000     0.364030000000     0.053079   
H388     H      0.353240000000     0.720100000000     0.414920000000     0.0529416  
H389     H      0.387010000000     0.798430000000     0.392670000000     0.0536089  
H390     H      0.370870000000     0.780920000000     0.335930000000     0.0515263  
H391     H      0.377820000000     0.008440000000     0.354340000000     0.0524488  
H392     H      0.326470000000     0.990440000000     0.365400000000     0.0527129  
H393     H      0.333450000000     0.947360000000     0.377090000000     0.0504769  
H394     H      0.403250000000     0.972550000000     0.361660000000     0.0502189  
H395     H      0.404210000000     0.931290000000     0.345710000000     0.0538339  
H396     H      0.360390000000     0.910320000000     0.383600000000     0.0522335  
H397     H      0.383420000000     0.008420000000     0.380980000000     0.0531813  
H398     H      0.332340000000     0.990580000000     0.391970000000     0.0528746  
H399     H      0.352640000000     0.912010000000     0.357560000000     0.0534498  
H400     H      0.410240000000     0.928790000000     0.372140000000     0.0515293  
H401     H      0.882510000000     0.950170000000     0.380640000000     0.0531082  
H402     H      0.831470000000     0.968560000000     0.390980000000     0.0527539  
H403     H      0.833370000000     0.011890000000     0.376490000000     0.050441   
H404     H      0.903080000000     0.985960000000     0.361960000000     0.0505677  
H405     H      0.910430000000     0.029580000000     0.372900000000     0.0516867  
H406     H      0.853260000000     0.047130000000     0.357560000000     0.0535966  
H407     H      0.877330000000     0.950470000000     0.353920000000     0.0523911  
H408     H      0.826040000000     0.969010000000     0.364320000000     0.0525376  
H409     H      0.860700000000     0.048560000000     0.383710000000     0.0522939  
H410     H      0.904830000000     0.027280000000     0.346360000000     0.0540904  
H411     H      0.695040000000     0.817800000000     0.408410000000     0.0538614  
H412     H      0.674700000000     0.868750000000     0.396620000000     0.053429   
H413     H      0.709780000000     0.888440000000     0.376900000000     0.0504649  
H414     H      0.736350000000     0.819420000000     0.392160000000     0.0504931  
H415     H      0.772030000000     0.845270000000     0.399230000000     0.0524736  
H416     H      0.753110000000     0.890290000000     0.361780000000     0.0528423  
H417     H      0.692460000000     0.811700000000     0.382010000000     0.0515755  
H418     H      0.672970000000     0.860990000000     0.370590000000     0.0523082  
H419     H      0.753030000000     0.896110000000     0.388360000000     0.0527368  
H420     H      0.771930000000     0.839750000000     0.372590000000     0.0531587  
H421     H      0.882060000000     0.816740000000     0.510930000000     0.0529568  
H422     H      0.870910000000     0.867280000000     0.529680000000     0.0531486  
H423     H      0.851950000000     0.887730000000     0.493990000000     0.0504219  
H424     H      0.867600000000     0.818760000000     0.467550000000     0.050463   
H425     H      0.874590000000     0.846350000000     0.431090000000     0.0522396  
H426     H      0.836370000000     0.889560000000     0.452600000000     0.0538572  
H427     H      0.855360000000     0.810980000000     0.510430000000     0.0527436  
H428     H      0.844170000000     0.861710000000     0.529310000000     0.0524016  
H429     H      0.862950000000     0.895540000000     0.450460000000     0.0514369  
H430     H      0.848430000000     0.838590000000     0.432360000000     0.0535104  
H431     H      0.634390000000     0.219100000000     0.089390000000     0.052867   
H432     H      0.624680000000     0.200850000000     0.140330000000     0.0530836  
H433     H      0.605280000000     0.236420000000     0.160740000000     0.0504555  
H434     H      0.619030000000     0.262200000000     0.091080000000     0.0504909  
H435     H      0.625680000000     0.299180000000     0.118060000000     0.0523175  
H436     H      0.588740000000     0.277410000000     0.162260000000     0.0538947  
H437     H      0.607590000000     0.219080000000     0.084090000000     0.0527722  
H438     H      0.597800000000     0.200640000000     0.135410000000     0.0524908  
H439     H      0.615350000000     0.280290000000     0.167760000000     0.0515067  
H440     H      0.599430000000     0.297170000000     0.110760000000     0.0535589  
H441     H      0.609480000000     0.507300000000     0.149310000000     0.0524144  
H442     H      0.660790000000     0.489000000000     0.138560000000     0.0527871  
H443     H      0.653580000000     0.446070000000     0.126510000000     0.0505442  
H444     H      0.583840000000     0.471680000000     0.141490000000     0.0504237  
H445     H      0.582400000000     0.430380000000     0.157160000000     0.0539097  
H446     H      0.626390000000     0.409250000000     0.119540000000     0.0522536  
H447     H      0.604110000000     0.507550000000     0.122630000000     0.0531126  
H448     H      0.655150000000     0.489400000000     0.111940000000     0.0530022  
H449     H      0.633980000000     0.410760000000     0.145650000000     0.0535694  
H450     H      0.576630000000     0.428020000000     0.130660000000     0.051506   
H451     H      0.628920000000     0.646830000000     0.992690000000     0.0527816  
H452     H      0.639550000000     0.595970000000     0.973700000000     0.0524966  
H453     H      0.632510000000     0.570120000000     0.009240000000     0.0504367  
H454     H      0.617590000000     0.639190000000     0.035810000000     0.050498   
H455     H      0.637470000000     0.619410000000     0.070650000000     0.0534729  
H456     H      0.622480000000     0.562430000000     0.053000000000     0.0514909  
H457     H      0.602200000000     0.641120000000     0.992730000000     0.0529094  
H458     H      0.612780000000     0.590540000000     0.973910000000     0.0531692  
H459     H      0.649010000000     0.568400000000     0.050320000000     0.053794   
H460     H      0.611320000000     0.611730000000     0.072490000000     0.0523322  
H461     H      0.713590000000     0.345520000000     0.400890000000     0.0523054  
H462     H      0.732530000000     0.396050000000     0.388920000000     0.0527499  
H463     H      0.775710000000     0.388130000000     0.377170000000     0.0505478  
H464     H      0.749210000000     0.319430000000     0.393940000000     0.0504221  
H465     H      0.790770000000     0.318010000000     0.409720000000     0.0538343  
H466     H      0.812370000000     0.360550000000     0.370910000000     0.0523174  
H467     H      0.713490000000     0.339410000000     0.374380000000     0.0531957  
H468     H      0.732300000000     0.389780000000     0.362440000000     0.0529732  
H469     H      0.811020000000     0.368710000000     0.396840000000     0.0534143  
H470     H      0.792930000000     0.311470000000     0.383380000000     0.0516124  
H471     H      0.647020000000     0.389840000000     0.452710000000     0.053922   
H472     H      0.636480000000     0.338470000000     0.432590000000     0.0535373  
H473     H      0.616880000000     0.318570000000     0.467420000000     0.0505573  
H474     H      0.630440000000     0.388030000000     0.493670000000     0.050475   
H475     H      0.637970000000     0.362540000000     0.529300000000     0.0525414  
H476     H      0.601510000000     0.316560000000     0.510570000000     0.0528701  
H477     H      0.620410000000     0.395300000000     0.449770000000     0.0514938  
H478     H      0.610230000000     0.345760000000     0.430540000000     0.0523098  
H479     H      0.628320000000     0.311330000000     0.510510000000     0.0528389  
H480     H      0.611080000000     0.367340000000     0.529140000000     0.0530578  
H481     H      0.575850000000     0.365690000000     0.240660000000     0.0527556  
H482     H      0.626890000000     0.377640000000     0.222420000000     0.0523801  
H483     H      0.652680000000     0.370420000000     0.258120000000     0.0504495  
H484     H      0.583290000000     0.353800000000     0.283660000000     0.0505309  
H485     H      0.602440000000     0.373330000000     0.319070000000     0.0535585  
H486     H      0.660120000000     0.359690000000     0.301770000000     0.05153    
H487     H      0.582120000000     0.339230000000     0.240320000000     0.0529909  
H488     H      0.632930000000     0.351120000000     0.222210000000     0.0531458  
H489     H      0.653710000000     0.386030000000     0.299540000000     0.0538347  
H490     H      0.610560000000     0.347400000000     0.320500000000     0.0523146  
H491     H      0.445340000000     0.638300000000     0.413000000000     0.0537351  
H492     H      0.424850000000     0.625230000000     0.362460000000     0.0533834  
H493     H      0.459970000000     0.605190000000     0.343010000000     0.0505038  
H494     H      0.486800000000     0.622190000000     0.411580000000     0.0504883  
H495     H      0.522400000000     0.628680000000     0.385360000000     0.0523472  
H496     H      0.503270000000     0.590140000000     0.341330000000     0.0528777  
H497     H      0.443060000000     0.612060000000     0.419770000000     0.0516077  
H498     H      0.423360000000     0.599370000000     0.370750000000     0.0523754  
H499     H      0.503220000000     0.616560000000     0.334880000000     0.0527439  
H500     H      0.522290000000     0.602210000000     0.391610000000     0.0531591  
H501     H      0.653990000000     0.571430000000     0.203710000000     0.0538565  
H502     H      0.602840000000     0.583990000000     0.183850000000     0.0534933  
H503     H      0.583430000000     0.603580000000     0.219100000000     0.0505044  
H504     H      0.652710000000     0.587190000000     0.245090000000     0.0504965  
H505     H      0.626750000000     0.580060000000     0.280680000000     0.0523823  
H506     H      0.581970000000     0.618290000000     0.262370000000     0.0529071  
H507     H      0.660390000000     0.597770000000     0.201470000000     0.0516262  
H508     H      0.610900000000     0.609940000000     0.182400000000     0.0523709  
H509     H      0.575770000000     0.591810000000     0.262110000000     0.0527254  
H510     H      0.632720000000     0.606600000000     0.280800000000     0.0531556  
H511     H      0.633290000000     0.546930000000     0.357660000000     0.0535731  
H512     H      0.581940000000     0.527320000000     0.345160000000     0.0539271  
H513     H      0.583170000000     0.485930000000     0.360620000000     0.0504881  
H514     H      0.652590000000     0.511550000000     0.376960000000     0.0505156  
H515     H      0.660080000000     0.468670000000     0.364840000000     0.0527047  
H516     H      0.603130000000     0.450000000000     0.379640000000     0.0531867  
H517     H      0.625250000000     0.548300000000     0.383640000000     0.0522712  
H518     H      0.575710000000     0.529530000000     0.371570000000     0.0515631  
H519     H      0.609010000000     0.450370000000     0.353070000000     0.0524316  
H520     H      0.653960000000     0.468170000000     0.391360000000     0.0529283  
H521     H      0.599330000000     0.660260000000     0.392020000000     0.0536308  
H522     H      0.587710000000     0.680210000000     0.340740000000     0.0539235  
H523     H      0.603460000000     0.721450000000     0.342410000000     0.0504672  
H524     H      0.618550000000     0.695430000000     0.411700000000     0.0505246  
H525     H      0.606420000000     0.738300000000     0.419140000000     0.0527447  
H526     H      0.622390000000     0.757210000000     0.362810000000     0.0531718  
H527     H      0.625510000000     0.658740000000     0.384350000000     0.0522668  
H528     H      0.614300000000     0.677790000000     0.334960000000     0.0514342  
H529     H      0.595600000000     0.756900000000     0.368150000000     0.0524635  
H530     H      0.633150000000     0.738760000000     0.413520000000     0.0529457  
H531     H      0.860240000000     0.877720000000     0.222450000000     0.052388   
H532     H      0.911050000000     0.865550000000     0.241220000000     0.0527106  
H533     H      0.903120000000     0.853850000000     0.284200000000     0.050519   
H534     H      0.834090000000     0.870810000000     0.257940000000     0.0504737  
H535     H      0.832780000000     0.886600000000     0.299300000000     0.0538053  
H536     H      0.875460000000     0.847740000000     0.320790000000     0.0523027  
H537     H      0.854060000000     0.851230000000     0.222300000000     0.0531759  
H538     H      0.904630000000     0.839120000000     0.240920000000     0.0529128  
H539     H      0.883730000000     0.873620000000     0.319380000000     0.0534051  
H540     H      0.826140000000     0.860310000000     0.301520000000     0.0516038  
H541     H      0.884700000000     0.007650000000     0.123680000000     0.0532014  
H542     H      0.833870000000     0.989690000000     0.111720000000     0.0528665  
H543     H      0.835010000000     0.946270000000     0.126060000000     0.0505179  
H544     H      0.904470000000     0.971600000000     0.142720000000     0.0501917  
H545     H      0.911800000000     0.927980000000     0.131740000000     0.0513893  
H546     H      0.854090000000     0.910800000000     0.145400000000     0.0535719  
H547     H      0.878730000000     0.007230000000     0.150230000000     0.0524449  
H548     H      0.827640000000     0.989130000000     0.138210000000     0.0526809  
H549     H      0.862250000000     0.909420000000     0.119450000000     0.0522196  
H550     H      0.905470000000     0.930190000000     0.158130000000     0.0538141  
H551     H      0.519880000000     0.831520000000     0.885280000000     0.0524143  
H552     H      0.501000000000     0.841900000000     0.834270000000     0.0527157  
H553     H      0.457810000000     0.853720000000     0.841760000000     0.0504844  
H554     H      0.484240000000     0.839150000000     0.911050000000     0.0504149  
H555     H      0.442840000000     0.823210000000     0.912850000000     0.0538986  
H556     H      0.421020000000     0.860590000000     0.869150000000     0.0522505  
H557     H      0.519960000000     0.858210000000     0.890500000000     0.053125   
H558     H      0.501240000000     0.868530000000     0.839760000000     0.0528413  
H559     H      0.422580000000     0.834480000000     0.861680000000     0.0534316  
H560     H      0.440420000000     0.849680000000     0.918600000000     0.0515287  
H561     H      0.604010000000     0.719820000000     0.919740000000     0.0527484  
H562     H      0.592510000000     0.700790000000     0.869090000000     0.0524215  
H563     H      0.599860000000     0.736070000000     0.842930000000     0.0504155  
H564     H      0.615960000000     0.762710000000     0.911770000000     0.0505257  
H565     H      0.596460000000     0.797770000000     0.891980000000     0.0535098  
H566     H      0.610570000000     0.779560000000     0.834910000000     0.0515545  
H567     H      0.630660000000     0.719450000000     0.913760000000     0.0529376  
H568     H      0.619210000000     0.700570000000     0.863310000000     0.0532046  
H569     H      0.584060000000     0.777400000000     0.841160000000     0.053848   
H570     H      0.622570000000     0.799090000000     0.884050000000     0.0523555  
H571     H      0.812310000000     0.860110000000     0.632270000000     0.0522963  
H572     H      0.792830000000     0.811000000000     0.620120000000     0.0515835  
H573     H      0.748980000000     0.818880000000     0.609900000000     0.0504393  
H574     H      0.775550000000     0.887670000000     0.626210000000     0.0504805  
H575     H      0.732180000000     0.889340000000     0.641200000000     0.0529149  
H576     H      0.713340000000     0.844870000000     0.603050000000     0.0523646  
H577     H      0.810680000000     0.868230000000     0.606340000000     0.0534349  
H578     H      0.790360000000     0.817450000000     0.593790000000     0.053872   
H579     H      0.713340000000     0.838970000000     0.629620000000     0.0530909  
H580     H      0.732360000000     0.895530000000     0.614710000000     0.0527844  
H581     H      0.622120000000     0.895380000000     0.552370000000     0.0514481  
H582     H      0.610660000000     0.846070000000     0.571500000000     0.0522607  
H583     H      0.617730000000     0.818670000000     0.534900000000     0.0505456  
H584     H      0.633140000000     0.887800000000     0.508770000000     0.0504295  
H585     H      0.614260000000     0.867430000000     0.472980000000     0.0531149  
H586     H      0.630010000000     0.811110000000     0.492020000000     0.0527156  
H587     H      0.648720000000     0.889510000000     0.550160000000     0.0538623  
H588     H      0.636840000000     0.838380000000     0.570160000000     0.0535877  
H589     H      0.603290000000     0.816780000000     0.491520000000     0.0529734  
H590     H      0.641020000000     0.861960000000     0.473340000000     0.0523298  
H591     H      0.625580000000     0.876080000000     0.780130000000     0.052479   
H592     H      0.574230000000     0.866040000000     0.761420000000     0.0527969  
H593     H      0.581560000000     0.854400000000     0.718370000000     0.0505037  
H594     H      0.651290000000     0.868460000000     0.744520000000     0.0504928  
H595     H      0.653060000000     0.884580000000     0.703350000000     0.0538331  
H596     H      0.608880000000     0.847580000000     0.681600000000     0.0523379  
H597     H      0.630640000000     0.849360000000     0.780110000000     0.0531381  
H598     H      0.579630000000     0.839390000000     0.761580000000     0.0529425  
H599     H      0.601520000000     0.873710000000     0.683340000000     0.0534927  
H600     H      0.658660000000     0.858090000000     0.700760000000     0.0515431  
H601     H      0.021600000000     0.856600000000     0.610810000000     0.0531579  
H602     H      0.002950000000     0.868690000000     0.661180000000     0.0529804  
H603     H      0.959560000000     0.853750000000     0.659790000000     0.050432   
H604     H      0.985870000000     0.836780000000     0.591010000000     0.0503224  
H605     H      0.942040000000     0.847030000000     0.583170000000     0.0515291  
H606     H      0.924310000000     0.833790000000     0.640610000000     0.0534673  
H607     H      0.021590000000     0.830120000000     0.616990000000     0.0524306  
H608     H      0.002770000000     0.842280000000     0.667620000000     0.0528779  
H609     H      0.922740000000     0.859640000000     0.632300000000     0.0523097  
H610     H      0.944420000000     0.820770000000     0.589850000000     0.0538143  
H611     H      0.152000000000     0.886760000000     0.799300000000     0.0538025  
H612     H      0.100510000000     0.874590000000     0.818540000000     0.0534829  
H613     H      0.081450000000     0.854980000000     0.783120000000     0.0505392  
H614     H      0.151170000000     0.870850000000     0.757980000000     0.0504477  
H615     H      0.125720000000     0.878000000000     0.722020000000     0.052346   
H616     H      0.080480000000     0.840100000000     0.739880000000     0.0529357  
H617     H      0.158200000000     0.860380000000     0.801740000000     0.0516072  
H618     H      0.108390000000     0.848600000000     0.820200000000     0.0523621  
H619     H      0.074440000000     0.866620000000     0.739970000000     0.0527262  
H620     H      0.131540000000     0.851430000000     0.722080000000     0.053148   
H621     H      0.131970000000     0.719100000000     0.588700000000     0.0529909  
H622     H      0.121460000000     0.700730000000     0.639520000000     0.0531774  
H623     H      0.102600000000     0.736520000000     0.659930000000     0.0504766  
H624     H      0.117370000000     0.762410000000     0.590520000000     0.0505396  
H625     H      0.124490000000     0.799120000000     0.617750000000     0.0522557  
H626     H      0.086860000000     0.777810000000     0.661590000000     0.0539286  
H627     H      0.105210000000     0.719510000000     0.583220000000     0.0527822  
H628     H      0.094650000000     0.700990000000     0.634280000000     0.0524493  
H629     H      0.113490000000     0.780170000000     0.667240000000     0.051488   
H630     H      0.098260000000     0.797630000000     0.610240000000     0.0536243  
H631     H      0.109010000000     0.007480000000     0.647650000000     0.0525734  
H632     H      0.160540000000     0.988920000000     0.638240000000     0.0527285  
H633     H      0.153480000000     0.945940000000     0.626440000000     0.0505406  
H634     H      0.083500000000     0.971860000000     0.639630000000     0.0502827  
H635     H      0.081630000000     0.930740000000     0.655720000000     0.0538827  
H636     H      0.126340000000     0.909100000000     0.619260000000     0.0522645  
H637     H      0.104320000000     0.007510000000     0.620840000000     0.0531721  
H638     H      0.155490000000     0.989150000000     0.611500000000     0.0528604  
H639     H      0.133400000000     0.910890000000     0.645490000000     0.0535444  
H640     H      0.076410000000     0.928080000000     0.629140000000     0.051493   
H641     H      0.372490000000     0.091110000000     0.531310000000     0.0532301  
H642     H      0.383490000000     0.141780000000     0.512850000000     0.0529969  
H643     H      0.369080000000     0.139950000000     0.469440000000     0.0505051  
H644     H      0.353640000000     0.070790000000     0.495490000000     0.0505414  
H645     H      0.364690000000     0.063260000000     0.451900000000     0.0516323  
H646     H      0.350000000000     0.120270000000     0.434130000000     0.0535882  
H647     H      0.345730000000     0.096590000000     0.530940000000     0.0524167  
H648     H      0.356780000000     0.147460000000     0.512330000000     0.0527155  
H649     H      0.376180000000     0.112580000000     0.432830000000     0.052285   
H650     H      0.338100000000     0.069130000000     0.454080000000     0.0540318  
H651     H      0.397670000000     0.278440000000     0.663840000000     0.0539899  
H652     H      0.385610000000     0.298340000000     0.612600000000     0.0536706  
H653     H      0.366860000000     0.262970000000     0.592910000000     0.0504986  
H654     H      0.382540000000     0.237000000000     0.662090000000     0.0504698  
H655     H      0.390870000000     0.201730000000     0.636210000000     0.0523942  
H656     H      0.352900000000     0.219430000000     0.591010000000     0.0530193  
H657     H      0.371050000000     0.280510000000     0.669660000000     0.0514223  
H658     H      0.359440000000     0.299480000000     0.620390000000     0.0522015  
H659     H      0.379610000000     0.220290000000     0.585330000000     0.0527538  
H660     H      0.364110000000     0.201000000000     0.641670000000     0.0531884  
H661     H      0.233500000000     0.067330000000     0.641170000000     0.0529043  
H662     H      0.214720000000     0.118040000000     0.631130000000     0.0530962  
H663     H      0.250420000000     0.138750000000     0.612160000000     0.050443   
H664     H      0.276950000000     0.069480000000     0.626370000000     0.0505639  
H665     H      0.313720000000     0.096890000000     0.633360000000     0.052337   
H666     H      0.291790000000     0.140690000000     0.596180000000     0.0538909  
H667     H      0.233810000000     0.061990000000     0.614490000000     0.0527913  
H668     H      0.214830000000     0.113000000000     0.604390000000     0.0524576  
H669     H      0.294270000000     0.146290000000     0.622700000000     0.0514805  
H670     H      0.312120000000     0.089510000000     0.607210000000     0.0535388  
H671     H      0.443440000000     0.111430000000     0.585220000000     0.0516555  
H672     H      0.424230000000     0.099010000000     0.634450000000     0.0524089  
H673     H      0.461090000000     0.105070000000     0.661840000000     0.0505939  
H674     H      0.487260000000     0.121740000000     0.592940000000     0.0504881  
H675     H      0.523000000000     0.102010000000     0.612720000000     0.0531766  
H676     H      0.504360000000     0.116600000000     0.669520000000     0.0527918  
H677     H      0.445770000000     0.137720000000     0.591780000000     0.0538109  
H678     H      0.425760000000     0.124910000000     0.642610000000     0.0534516  
H679     H      0.504450000000     0.090150000000     0.663220000000     0.0530235  
H680     H      0.523050000000     0.128510000000     0.618820000000     0.0522742  
H681     H      0.660470000000     0.968190000000     0.639050000000     0.052598   
H682     H      0.609040000000     0.950220000000     0.649800000000     0.0524335  
H683     H      0.583690000000     0.986150000000     0.642400000000     0.0506264  
H684     H      0.653590000000     0.011300000000     0.627400000000     0.0503913  
H685     H      0.634320000000     0.046650000000     0.646880000000     0.0534577  
H686     H      0.576790000000     0.029910000000     0.631960000000     0.0518118  
H687     H      0.654740000000     0.968110000000     0.612450000000     0.0527964  
H688     H      0.603570000000     0.950300000000     0.623130000000     0.0531581  
H689     H      0.582670000000     0.027390000000     0.658420000000     0.0541003  
H690     H      0.626720000000     0.048380000000     0.620790000000     0.0522864  
H691     H      0.604830000000     0.238110000000     0.583770000000     0.0527408  
H692     H      0.595540000000     0.256820000000     0.635000000000     0.0523995  
H693     H      0.604510000000     0.221540000000     0.660610000000     0.0503993  
H694     H      0.617530000000     0.195360000000     0.590960000000     0.0505219  
H695     H      0.599240000000     0.160150000000     0.611330000000     0.0536938  
H696     H      0.615910000000     0.177950000000     0.667830000000     0.0514058  
H697     H      0.631730000000     0.238800000000     0.588490000000     0.0529924  
H698     H      0.622490000000     0.257370000000     0.639480000000     0.0531363  
H699     H      0.589120000000     0.180230000000     0.662940000000     0.0540197  
H700     H      0.625640000000     0.158820000000     0.618240000000     0.0522376  
H701     H      0.789950000000     0.139270000000     0.912820000000     0.0537733  
H702     H      0.810790000000     0.089380000000     0.898320000000     0.0533324  
H703     H      0.775530000000     0.069990000000     0.878240000000     0.0506132  
H704     H      0.748260000000     0.137810000000     0.897230000000     0.050464   
H705     H      0.712950000000     0.111090000000     0.903450000000     0.0523019  
H706     H      0.732120000000     0.068270000000     0.863610000000     0.0529867  
H707     H      0.791670000000     0.146690000000     0.886700000000     0.0517622  
H708     H      0.811760000000     0.098180000000     0.872580000000     0.0524701  
H709     H      0.732380000000     0.061200000000     0.889890000000     0.0527772  
H710     H      0.712800000000     0.118100000000     0.877160000000     0.0532562  
H711     H      0.623610000000     0.909100000000     0.882690000000     0.0522923  
H712     H      0.574360000000     0.928500000000     0.869990000000     0.0515672  
H713     H      0.582440000000     0.972020000000     0.859550000000     0.0502261  
H714     H      0.651370000000     0.945600000000     0.876680000000     0.0505191  
H715     H      0.652930000000     0.988810000000     0.891490000000     0.0528883  
H716     H      0.608700000000     0.007440000000     0.852770000000     0.0524315  
H717     H      0.631940000000     0.910520000000     0.856800000000     0.0533971  
H718     H      0.581080000000     0.930720000000     0.843700000000     0.0537453  
H719     H      0.602430000000     0.007540000000     0.879260000000     0.0532515  
H720     H      0.659430000000     0.988570000000     0.865060000000     0.0526832  
H721     H      0.627730000000     0.080990000000     0.723530000000     0.0524983  
H722     H      0.576450000000     0.092380000000     0.741620000000     0.0528235  
H723     H      0.583580000000     0.104120000000     0.784650000000     0.0505778  
H724     H      0.653240000000     0.088270000000     0.759370000000     0.0505257  
H725     H      0.654180000000     0.072380000000     0.800640000000     0.0539993  
H726     H      0.610630000000     0.110510000000     0.821700000000     0.0523094  
H727     H      0.633440000000     0.107580000000     0.723420000000     0.0531706  
H728     H      0.582480000000     0.118900000000     0.741350000000     0.052927   
H729     H      0.602650000000     0.084560000000     0.819990000000     0.0536631  
H730     H      0.660340000000     0.098760000000     0.803190000000     0.0515431  
H731     H      0.636250000000     0.118380000000     0.933350000000     0.0538307  
H732     H      0.647260000000     0.066940000000     0.953430000000     0.0541181  
H733     H      0.632140000000     0.069110000000     0.994840000000     0.050429   
H734     H      0.617930000000     0.138480000000     0.968650000000     0.0505804  
H735     H      0.630870000000     0.145910000000     0.011290000000     0.0527224  
H736     H      0.614170000000     0.090030000000     0.030830000000     0.0531529  
H737     H      0.609970000000     0.111040000000     0.932150000000     0.0522175  
H738     H      0.620530000000     0.061690000000     0.951240000000     0.0514253  
H739     H      0.641040000000     0.094880000000     0.030030000000     0.0523501  
H740     H      0.604050000000     0.140810000000     0.012240000000     0.0530496  
H741     H      0.873330000000     0.612730000000     0.930970000000     0.0523115  
H742     H      0.862590000000     0.563170000000     0.950040000000     0.051528   
H743     H      0.852660000000     0.570390000000     0.993920000000     0.0504155  
H744     H      0.866980000000     0.639800000000     0.967930000000     0.0506097  
H745     H      0.882460000000     0.641460000000     0.011000000000     0.0529183  
H746     H      0.845510000000     0.595860000000     0.029710000000     0.0523805  
H747     H      0.847130000000     0.620210000000     0.932990000000     0.0534792  
H748     H      0.836030000000     0.568930000000     0.952900000000     0.0538248  
H749     H      0.872340000000     0.590680000000     0.029400000000     0.0530112  
H750     H      0.855710000000     0.646990000000     0.011120000000     0.0528259  
H751     H      0.880370000000     0.719480000000     0.083940000000     0.0526889  
H752     H      0.890520000000     0.700760000000     0.135050000000     0.052428   
H753     H      0.882650000000     0.736240000000     0.160720000000     0.0504323  
H754     H      0.868450000000     0.762400000000     0.091300000000     0.0505195  
H755     H      0.887700000000     0.797410000000     0.111170000000     0.0535764  
H756     H      0.872050000000     0.779980000000     0.168080000000     0.0514549  
H757     H      0.853580000000     0.719150000000     0.089290000000     0.0529079  
H758     H      0.863670000000     0.700600000000     0.140080000000     0.0531272  
H759     H      0.898690000000     0.777360000000     0.162560000000     0.053957   
H760     H      0.861460000000     0.799120000000     0.118600000000     0.0521977  
H761     H      0.733280000000     0.567620000000     0.140880000000     0.0529155  
H762     H      0.714490000000     0.618180000000     0.129990000000     0.0531626  
H763     H      0.750090000000     0.638440000000     0.110420000000     0.0504529  
H764     H      0.776590000000     0.569410000000     0.125760000000     0.0505109  
H765     H      0.813400000000     0.596820000000     0.132080000000     0.0523364  
H766     H      0.791450000000     0.640020000000     0.094210000000     0.0538248  
H767     H      0.733320000000     0.561770000000     0.114300000000     0.0527605  
H768     H      0.714380000000     0.612590000000     0.103360000000     0.0524212  
H769     H      0.793950000000     0.646120000000     0.120620000000     0.0515893  
H770     H      0.811730000000     0.589070000000     0.106050000000     0.0534218  
H771     H      0.389180000000     0.160930000000     0.111950000000     0.0534729  
H772     H      0.401020000000     0.181340000000     0.162870000000     0.0538087  
H773     H      0.384670000000     0.222450000000     0.161110000000     0.050493   
H774     H      0.369350000000     0.195770000000     0.092130000000     0.050579   
H775     H      0.380800000000     0.238810000000     0.084310000000     0.0527478  
H776     H      0.364960000000     0.257750000000     0.140670000000     0.0531599  
H777     H      0.363050000000     0.159230000000     0.119720000000     0.0523854  
H778     H      0.374510000000     0.178800000000     0.168990000000     0.0515795  
H779     H      0.391710000000     0.257890000000     0.135110000000     0.0524368  
H780     H      0.354110000000     0.238850000000     0.090140000000     0.052889   
H781     H      0.361020000000     0.396530000000     0.951390000000     0.0516082  
H782     H      0.372590000000     0.347350000000     0.931670000000     0.0523741  
H783     H      0.366530000000     0.319720000000     0.968230000000     0.0506055  
H784     H      0.351100000000     0.388560000000     0.995090000000     0.0504646  
H785     H      0.371060000000     0.368150000000     0.030300000000     0.0531098  
H786     H      0.355300000000     0.311820000000     0.011350000000     0.0528422  
H787     H      0.334550000000     0.390300000000     0.954010000000     0.0538156  
H788     H      0.346480000000     0.339520000000     0.933470000000     0.0534545  
H789     H      0.381970000000     0.317730000000     0.011280000000     0.0529422  
H790     H      0.344330000000     0.362530000000     0.030560000000     0.052405   
H791     H      0.522590000000     0.356210000000     0.111530000000     0.0532433  
H792     H      0.504010000000     0.368200000000     0.162020000000     0.052975   
H793     H      0.460490000000     0.353770000000     0.160480000000     0.050511   
H794     H      0.486650000000     0.336980000000     0.091600000000     0.0504616  
H795     H      0.442920000000     0.347820000000     0.083830000000     0.0515527  
H796     H      0.425020000000     0.334360000000     0.141160000000     0.0535168  
H797     H      0.522280000000     0.329710000000     0.117600000000     0.0523601  
H798     H      0.503590000000     0.341740000000     0.168250000000     0.0527081  
H799     H      0.423750000000     0.360270000000     0.132980000000     0.0522648  
H800     H      0.445040000000     0.321480000000     0.090260000000     0.0539193  
H801     H      0.002940000000     0.368590000000     0.340180000000     0.052919   
H802     H      0.021790000000     0.357480000000     0.390700000000     0.0531483  
H803     H      0.986250000000     0.337740000000     0.410920000000     0.0503169  
H804     H      0.959650000000     0.353410000000     0.341940000000     0.0504682  
H805     H      0.922870000000     0.359530000000     0.369430000000     0.0523353  
H806     H      0.944900000000     0.321480000000     0.412450000000     0.0537903  
H807     H      0.002930000000     0.342070000000     0.334190000000     0.0528163  
H808     H      0.021950000000     0.330900000000     0.384980000000     0.0524057  
H809     H      0.942390000000     0.347830000000     0.418710000000     0.0516129  
H810     H      0.924560000000     0.333550000000     0.361560000000     0.0533941  
H811     H      0.160530000000     0.489640000000     0.364210000000     0.052748   
H812     H      0.109550000000     0.508220000000     0.352500000000     0.0524164  
H813     H      0.083570000000     0.472690000000     0.359700000000     0.050485   
H814     H      0.152860000000     0.446680000000     0.376030000000     0.0505041  
H815     H      0.133400000000     0.411470000000     0.356470000000     0.0535383  
H816     H      0.075880000000     0.429110000000     0.370330000000     0.0516218  
H817     H      0.154370000000     0.489940000000     0.390720000000     0.0529275  
H818     H      0.103630000000     0.508380000000     0.379070000000     0.0532046  
H819     H      0.082240000000     0.431350000000     0.343960000000     0.0538635  
H820     H      0.125370000000     0.410040000000     0.382450000000     0.0523706  
H821     H      0.122720000000     0.201560000000     0.362680000000     0.053155   
H822     H      0.133560000000     0.220270000000     0.413290000000     0.0529364  
H823     H      0.118490000000     0.263430000000     0.411410000000     0.0505322  
H824     H      0.103240000000     0.237030000000     0.342300000000     0.0504831  
H825     H      0.113590000000     0.280700000000     0.334620000000     0.051556   
H826     H      0.098810000000     0.298380000000     0.391680000000     0.0535315  
H827     H      0.095960000000     0.201560000000     0.368180000000     0.0524563  
H828     H      0.106860000000     0.220430000000     0.419060000000     0.052802   
H829     H      0.124950000000     0.300060000000     0.383940000000     0.0522874  
H830     H      0.087050000000     0.278170000000     0.340610000000     0.0539241  
H831     H      0.103160000000     0.585170000000     0.319100000000     0.053582   
H832     H      0.154400000000     0.572320000000     0.299490000000     0.0538806  
H833     H      0.153260000000     0.587690000000     0.258020000000     0.0504417  
H834     H      0.083950000000     0.604510000000     0.283650000000     0.0505612  
H835     H      0.076370000000     0.592370000000     0.240760000000     0.0527742  
H836     H      0.133410000000     0.606760000000     0.222030000000     0.0531702  
H837     H      0.111350000000     0.611090000000     0.320400000000     0.0522771  
H838     H      0.160810000000     0.598670000000     0.301620000000     0.0515398  
H839     H      0.127350000000     0.580250000000     0.222440000000     0.0523782  
H840     H      0.082660000000     0.618820000000     0.240220000000     0.0530137  
H841     H      0.943390000000     0.611070000000     0.083750000000     0.0516033  
H842     H      0.924070000000     0.598390000000     0.132860000000     0.0523473  
H843     H      0.960770000000     0.604590000000     0.160420000000     0.0504315  
H844     H      0.987110000000     0.621660000000     0.091670000000     0.0503768  
H845     H      0.022890000000     0.602080000000     0.111510000000     0.0532464  
H846     H      0.003960000000     0.616350000000     0.168300000000     0.0527683  
H847     H      0.945520000000     0.637360000000     0.090390000000     0.0538099  
H848     H      0.925400000000     0.624270000000     0.141110000000     0.0534566  
H849     H      0.004200000000     0.589920000000     0.161920000000     0.0530163  
H850     H      0.022780000000     0.628550000000     0.117750000000     0.0523459  
H851     H      0.109130000000     0.845930000000     0.930810000000     0.0522118  
H852     H      0.118650000000     0.895460000000     0.950030000000     0.0513698  
H853     H      0.130240000000     0.888210000000     0.993620000000     0.0504155  
H854     H      0.117530000000     0.818610000000     0.967310000000     0.0505872  
H855     H      0.103530000000     0.815960000000     0.010850000000     0.0530219  
H856     H      0.139510000000     0.862610000000     0.028830000000     0.052324   
H857     H      0.135570000000     0.839130000000     0.932070000000     0.0537247  
H858     H      0.145470000000     0.890730000000     0.952260000000     0.0540412  
H859     H      0.112540000000     0.866920000000     0.029510000000     0.0530761  
H860     H      0.130450000000     0.811400000000     0.010020000000     0.0527137  
H861     H      0.107470000000     0.737930000000     0.083390000000     0.0528543  
H862     H      0.098200000000     0.756600000000     0.134760000000     0.0525434  
H863     H      0.106100000000     0.721010000000     0.160150000000     0.0504938  
H864     H      0.119120000000     0.694920000000     0.090480000000     0.0505186  
H865     H      0.099800000000     0.660040000000     0.110500000000     0.0535719  
H866     H      0.116320000000     0.677140000000     0.167260000000     0.051529   
H867     H      0.134330000000     0.738100000000     0.088400000000     0.0528867  
H868     H      0.125140000000     0.756550000000     0.139320000000     0.0530061  
H869     H      0.089650000000     0.680050000000     0.162060000000     0.0540317  
H870     H      0.126110000000     0.658040000000     0.117590000000     0.0522165  
H871     H      0.253720000000     0.890380000000     0.140760000000     0.052808   
H872     H      0.273080000000     0.840370000000     0.128300000000     0.0532246  
H873     H      0.237770000000     0.820340000000     0.108120000000     0.0504902  
H874     H      0.210440000000     0.888520000000     0.125680000000     0.0504496  
H875     H      0.174050000000     0.860490000000     0.131310000000     0.0523678  
H876     H      0.196300000000     0.818750000000     0.091990000000     0.0537678  
H877     H      0.253660000000     0.897030000000     0.114370000000     0.0526682  
H878     H      0.273180000000     0.846830000000     0.101860000000     0.0523696  
H879     H      0.194140000000     0.811740000000     0.118200000000     0.0516843  
H880     H      0.175420000000     0.868950000000     0.105480000000     0.0532664  
H881     H      0.043990000000     0.845410000000     0.083840000000     0.0516475  
H882     H      0.063640000000     0.858390000000     0.132820000000     0.0524744  
H883     H      0.027070000000     0.852420000000     0.160580000000     0.0506647  
H884     H      0.000360000000     0.834990000000     0.092060000000     0.0503533  
H885     H      0.964770000000     0.854810000000     0.111910000000     0.0530488  
H886     H      0.983850000000     0.840830000000     0.168730000000     0.0527287  
H887     H      0.041940000000     0.819170000000     0.090700000000     0.0537573  
H888     H      0.062360000000     0.832540000000     0.141160000000     0.0534146  
H889     H      0.983710000000     0.867220000000     0.162180000000     0.0529282  
H890     H      0.964790000000     0.828380000000     0.118340000000     0.0521576  
H891     H      0.213670000000     0.339150000000     0.128670000000     0.0532408  
H892     H      0.232270000000     0.389630000000     0.140500000000     0.0529828  
H893     H      0.275840000000     0.387990000000     0.126170000000     0.0504562  
H894     H      0.249640000000     0.319130000000     0.109590000000     0.0505021  
H895     H      0.293350000000     0.311370000000     0.120570000000     0.0515609  
H896     H      0.311320000000     0.368580000000     0.106900000000     0.0535136  
H897     H      0.214060000000     0.345110000000     0.102120000000     0.0523704  
H898     H      0.232780000000     0.395740000000     0.113990000000     0.0527016  
H899     H      0.312540000000     0.360490000000     0.132860000000     0.0522349  
H900     H      0.291260000000     0.317680000000     0.094170000000     0.0539353  
H901     H      0.082610000000     0.527100000000     0.157770000000     0.053885   
H902     H      0.133980000000     0.546560000000     0.145290000000     0.0535366  
H903     H      0.153150000000     0.511180000000     0.125820000000     0.050498   
H904     H      0.083650000000     0.485750000000     0.142140000000     0.0505243  
H905     H      0.109370000000     0.450050000000     0.149490000000     0.0525037  
H906     H      0.154340000000     0.467870000000     0.111240000000     0.0529195  
H907     H      0.076320000000     0.529400000000     0.131380000000     0.0515695  
H908     H      0.125950000000     0.548040000000     0.119320000000     0.0522862  
H909     H      0.160490000000     0.468220000000     0.137750000000     0.0527305  
H910     H      0.103460000000     0.449830000000     0.122930000000     0.0532477  
H911     H      0.102270000000     0.373450000000     0.183000000000     0.053552   
H912     H      0.153820000000     0.385010000000     0.202640000000     0.0539097  
H913     H      0.152370000000     0.369400000000     0.244000000000     0.0504465  
H914     H      0.082660000000     0.354350000000     0.218350000000     0.0505472  
H915     H      0.075420000000     0.366420000000     0.261310000000     0.052768   
H916     H      0.132110000000     0.350560000000     0.279890000000     0.0531564  
H917     H      0.109870000000     0.347370000000     0.181520000000     0.0522801  
H918     H      0.159620000000     0.358540000000     0.200320000000     0.0515383  
H919     H      0.126710000000     0.377210000000     0.279640000000     0.0524023  
H920     H      0.081080000000     0.339820000000     0.261710000000     0.0529973  
H921     H      0.113960000000     0.178620000000     0.833950000000     0.0513986  
H922     H      0.124560000000     0.159540000000     0.883360000000     0.0522628  
H923     H      0.117010000000     0.196120000000     0.910760000000     0.0505606  
H924     H      0.102770000000     0.222270000000     0.841340000000     0.050449   
H925     H      0.121150000000     0.258120000000     0.862160000000     0.053194   
H926     H      0.104480000000     0.238840000000     0.918170000000     0.052788   
H927     H      0.087270000000     0.181000000000     0.839320000000     0.0540877  
H928     H      0.098300000000     0.160960000000     0.890780000000     0.0538114  
H929     H      0.131280000000     0.239560000000     0.912960000000     0.0530195  
H930     H      0.094290000000     0.257570000000     0.867080000000     0.0524733  
H931     H      0.101570000000     0.316880000000     0.991390000000     0.0528919  
H932     H      0.111340000000     0.367730000000     0.973020000000     0.0530989  
H933     H      0.130950000000     0.388120000000     0.008490000000     0.0504465  
H934     H      0.117090000000     0.318600000000     0.034450000000     0.0504734  
H935     H      0.110640000000     0.345630000000     0.071440000000     0.0523074  
H936     H      0.147640000000     0.389650000000     0.049480000000     0.0538768  
H937     H      0.128350000000     0.311520000000     0.991260000000     0.0527972  
H938     H      0.138200000000     0.362740000000     0.972690000000     0.052469   
H939     H      0.121060000000     0.395240000000     0.052400000000     0.0515328  
H940     H      0.136870000000     0.338280000000     0.069370000000     0.0534983  
H941     H      0.961050000000     0.355690000000     0.891080000000     0.0531446  
H942     H      0.979700000000     0.368530000000     0.840810000000     0.0529398  
H943     H      0.023150000000     0.353960000000     0.842120000000     0.0505535  
H944     H      0.996860000000     0.335950000000     0.910650000000     0.0499716  
H945     H      0.040500000000     0.346590000000     0.918720000000     0.05172    
H946     H      0.058620000000     0.334150000000     0.861220000000     0.0534811  
H947     H      0.961190000000     0.329310000000     0.884480000000     0.0521785  
H948     H      0.979960000000     0.342180000000     0.834100000000     0.0526644  
H949     H      0.059810000000     0.359950000000     0.869740000000     0.0524359  
H950     H      0.038540000000     0.320380000000     0.911740000000     0.0538981  
H951     H      0.250650000000     0.397190000000     0.889490000000     0.0527466  
H952     H      0.269600000000     0.346310000000     0.900060000000     0.0524472  
H953     H      0.234020000000     0.320450000000     0.892430000000     0.0504537  
H954     H      0.207490000000     0.389590000000     0.877590000000     0.050507   
H955     H      0.172240000000     0.369660000000     0.896820000000     0.0534385  
H956     H      0.190240000000     0.312790000000     0.881790000000     0.0515463  
H957     H      0.250930000000     0.391630000000     0.862850000000     0.052913   
H958     H      0.269730000000     0.340980000000     0.873380000000     0.0531855  
H959     H      0.192570000000     0.318600000000     0.908280000000     0.0538895  
H960     H      0.170770000000     0.362130000000     0.870700000000     0.0523026  
N1       N      0.386800000000     0.101380000000     0.224440000000    -0.150744   
N2       N      0.353270000000     0.090400000000     0.320600000000    -0.151081   
N3       N      0.562800000000     0.119630000000     0.110520000000    -0.151096   
N4       N      0.466500000000     0.108540000000     0.144630000000    -0.150758   
N5       N      0.773790000000     0.086830000000     0.122060000000    -0.15085    
N6       N      0.677460000000     0.120830000000     0.110700000000    -0.151174   
N7       N      0.123440000000     0.122380000000     0.473570000000    -0.150781   
N8       N      0.133920000000     0.087660000000     0.569330000000    -0.15112    
N9       N      0.176500000000     0.122390000000     0.391760000000    -0.151112   
N10      N      0.272860000000     0.088280000000     0.381370000000    -0.150817   
N11      N      0.100370000000     0.100080000000     0.779280000000    -0.150914   
N12      N      0.134670000000     0.088200000000     0.683460000000    -0.151188   
N13      N      0.853440000000     0.088970000000     0.184480000000    -0.151137   
N14      N      0.886280000000     0.099830000000     0.280900000000    -0.1508     
N15      N      0.062030000000     0.120190000000     0.393950000000    -0.151116   
N16      N      0.965590000000     0.108120000000     0.360590000000    -0.150773   
N17      N      0.351890000000     0.951760000000     0.131470000000    -0.150885   
N18      N      0.385970000000     0.047620000000     0.142920000000    -0.151137   
N19      N      0.871480000000     0.256640000000     0.394440000000    -0.150841   
N20      N      0.882880000000     0.160590000000     0.361040000000    -0.151111   
N21      N      0.864460000000     0.336510000000     0.473810000000    -0.150815   
N22      N      0.853210000000     0.370560000000     0.569700000000    -0.151082   
N23      N      0.849360000000     0.368900000000     0.683600000000    -0.151119   
N24      N      0.882250000000     0.358370000000     0.780040000000    -0.150885   
N25      N      0.881940000000     0.411960000000     0.861980000000    -0.151133   
N26      N      0.848970000000     0.508290000000     0.872570000000    -0.150871   
N27      N      0.849970000000     0.590030000000     0.819190000000    -0.151171   
N28      N      0.883950000000     0.600160000000     0.723070000000    -0.150868   
N29      N      0.883680000000     0.546600000000     0.641370000000    -0.151129   
N30      N      0.849860000000     0.450630000000     0.630180000000    -0.150869   
N31      N      0.881470000000     0.660490000000     0.642850000000    -0.151168   
N32      N      0.870970000000     0.756340000000     0.608600000000    -0.150846   
N33      N      0.673250000000     0.621670000000     0.892390000000    -0.151134   
N34      N      0.769630000000     0.588040000000     0.880590000000    -0.1508     
N35      N      0.865640000000     0.122440000000     0.974780000000    -0.150861   
N36      N      0.856970000000     0.087890000000     0.070720000000    -0.151051   
N37      N      0.878240000000     0.298370000000     0.860630000000    -0.151138   
N38      N      0.868750000000     0.202460000000     0.894870000000    -0.15085    
N39      N      0.020550000000     0.110390000000     0.858870000000    -0.150922   
N40      N      0.924570000000     0.122390000000     0.893650000000    -0.151142   
N41      N      0.462260000000     0.609310000000     0.860950000000    -0.150856   
N42      N      0.558710000000     0.619860000000     0.894820000000    -0.151022   
N43      N      0.363140000000     0.837920000000     0.974100000000    -0.150872   
N44      N      0.354680000000     0.872120000000     0.070220000000    -0.151019   
N45      N      0.369290000000     0.758100000000     0.894670000000    -0.150732   
N46      N      0.379690000000     0.662000000000     0.861130000000    -0.151097   
N47      N      0.348640000000     0.452060000000     0.874200000000    -0.150816   
N48      N      0.382030000000     0.548230000000     0.863500000000    -0.151234   
N49      N      0.132590000000     0.951440000000     0.872640000000    -0.150789   
N50      N      0.099670000000     0.047740000000     0.861760000000    -0.151134   
N51      N      0.308520000000     0.838320000000     0.892800000000    -0.151117   
N52      N      0.212160000000     0.871970000000     0.880880000000    -0.150786   
N53      N      0.383060000000     0.600910000000     0.781120000000    -0.150844   
N54      N      0.350390000000     0.589690000000     0.684670000000    -0.151196   
N55      N      0.364970000000     0.622420000000     0.474850000000    -0.150833   
N56      N      0.353930000000     0.588320000000     0.570760000000    -0.151137   
N57      N      0.310930000000     0.621750000000     0.393470000000    -0.151199   
N58      N      0.214800000000     0.587580000000     0.381090000000    -0.150794   
N59      N      0.131860000000     0.587750000000     0.432810000000    -0.151104   
N60      N      0.120680000000     0.621580000000     0.528800000000    -0.15081    
N61      N      0.963790000000     0.607900000000     0.643280000000    -0.150884   
N62      N      0.060020000000     0.619600000000     0.609170000000    -0.151049   
N63      N      0.270840000000     0.587500000000     0.622400000000    -0.150878   
N64      N      0.174490000000     0.621180000000     0.610430000000    -0.151213   
N65      N      0.673780000000     0.337010000000     0.609630000000    -0.151171   
N66      N      0.770030000000     0.371130000000     0.621170000000    -0.150888   
N67      N      0.349560000000     0.370760000000     0.820090000000    -0.151183   
N68      N      0.383540000000     0.359190000000     0.724120000000    -0.150887   
N69      N      0.559180000000     0.337610000000     0.609460000000    -0.151103   
N70      N      0.463210000000     0.349820000000     0.644170000000    -0.150858   
N71      N      0.350430000000     0.507980000000     0.631010000000    -0.150809   
N72      N      0.383680000000     0.411790000000     0.641930000000    -0.151103   
N73      N      0.384720000000     0.858520000000     0.280530000000    -0.150822   
N74      N      0.351620000000     0.869650000000     0.184230000000    -0.151087   
N75      N      0.560680000000     0.838060000000     0.393650000000    -0.151169   
N76      N      0.464270000000     0.849860000000     0.360060000000    -0.150859   
N77      N      0.381350000000     0.798090000000     0.360920000000    -0.151055   
N78      N      0.371170000000     0.702180000000     0.395090000000    -0.150869   
N79      N      0.384620000000     0.911910000000     0.362490000000    -0.151135   
N80      N      0.352010000000     0.008300000000     0.373650000000    -0.150565   
N81      N      0.885190000000     0.046810000000     0.362910000000    -0.151112   
N82      N      0.851210000000     0.950760000000     0.372820000000    -0.15089    
N83      N      0.771350000000     0.870990000000     0.379980000000    -0.150857   
N84      N      0.675120000000     0.836920000000     0.391720000000    -0.151136   
N85      N      0.853360000000     0.870420000000     0.432960000000    -0.151237   
N86      N      0.863540000000     0.836030000000     0.528870000000    -0.150883   
N87      N      0.604910000000     0.297160000000     0.142530000000    -0.151099   
N88      N      0.616550000000     0.201110000000     0.109230000000    -0.150909   
N89      N      0.602030000000     0.410920000000     0.140500000000    -0.151128   
N90      N      0.635460000000     0.507120000000     0.130230000000    -0.150815   
N91      N      0.632430000000     0.587590000000     0.070240000000    -0.151178   
N92      N      0.620320000000     0.621760000000     0.974480000000    -0.150796   
N93      N      0.810480000000     0.336810000000     0.392420000000    -0.151205   
N94      N      0.714160000000     0.370810000000     0.381070000000    -0.150806   
N95      N      0.619330000000     0.336310000000     0.528670000000    -0.150851   
N96      N      0.630960000000     0.370220000000     0.432780000000    -0.151062   
N97      N      0.634490000000     0.368840000000     0.318920000000    -0.151146   
N98      N      0.601400000000     0.357930000000     0.222580000000    -0.150861   
N99      N      0.521600000000     0.608750000000     0.360150000000    -0.15085    
N100     N      0.425470000000     0.620980000000     0.394400000000    -0.15119    
N101     N      0.601200000000     0.599700000000     0.280300000000    -0.150895   
N102     N      0.634880000000     0.588570000000     0.184180000000    -0.151098   
N103     N      0.634620000000     0.450490000000     0.372640000000    -0.15087    
N104     N      0.601250000000     0.546710000000     0.362270000000    -0.151069   
N105     N      0.614760000000     0.756580000000     0.394030000000    -0.150788   
N106     N      0.604390000000     0.660590000000     0.360170000000    -0.151078   
N107     N      0.851660000000     0.869300000000     0.318910000000    -0.151142   
N108     N      0.885620000000     0.857870000000     0.222940000000    -0.15085    
N109     N      0.886150000000     0.910890000000     0.140940000000    -0.151185   
N110     N      0.853190000000     0.007250000000     0.130570000000    -0.150613   
N111     N      0.423030000000     0.839750000000     0.893480000000    -0.151129   
N112     N      0.519340000000     0.850470000000     0.859320000000    -0.150838   
N113     N      0.601190000000     0.797100000000     0.860100000000    -0.151095   
N114     N      0.612080000000     0.701390000000     0.894650000000    -0.15087    
N115     N      0.713990000000     0.870320000000     0.622670000000    -0.15081    
N116     N      0.810230000000     0.836340000000     0.610820000000    -0.151122   
N117     N      0.621740000000     0.836200000000     0.473670000000    -0.150853   
N118     N      0.631830000000     0.870210000000     0.569720000000    -0.151133   
N119     N      0.633430000000     0.868270000000     0.683610000000    -0.151164   
N120     N      0.599390000000     0.857310000000     0.779610000000    -0.150895   
N121     N      0.924680000000     0.838020000000     0.608660000000    -0.151059   
N122     N      0.021060000000     0.849980000000     0.642260000000    -0.150951   
N123     N      0.100060000000     0.858510000000     0.722150000000    -0.150892   
N124     N      0.132520000000     0.869820000000     0.818660000000    -0.151203   
N125     N      0.103500000000     0.797350000000     0.642050000000    -0.151184   
N126     N      0.113710000000     0.701290000000     0.608330000000    -0.150817   
N127     N      0.101560000000     0.911050000000     0.639700000000    -0.151173   
N128     N      0.135460000000     0.007060000000     0.629220000000    -0.150503   
N129     N      0.355010000000     0.088450000000     0.434550000000    -0.15115    
N130     N      0.365020000000     0.122350000000     0.530660000000    -0.150864   
N131     N      0.371600000000     0.201830000000     0.610420000000    -0.150788   
N132     N      0.380700000000     0.297880000000     0.644470000000    -0.151165   
N133     N      0.311650000000     0.121270000000     0.612590000000    -0.151171   
N134     N      0.215400000000     0.086930000000     0.623170000000    -0.150844   
N135     N      0.522550000000     0.108720000000     0.644140000000    -0.150883   
N136     N      0.426090000000     0.120500000000     0.610680000000    -0.151174   
N137     N      0.602360000000     0.046780000000     0.641770000000    -0.151173   
N138     N      0.634950000000     0.950370000000     0.630620000000    -0.150863   
N139     N      0.605230000000     0.160620000000     0.643020000000    -0.151173   
N140     N      0.613850000000     0.256560000000     0.608530000000    -0.150872   
N141     N      0.713770000000     0.086490000000     0.882800000000    -0.150927   
N142     N      0.809720000000     0.121360000000     0.894700000000    -0.151163   
N143     N      0.634010000000     0.006870000000     0.872720000000    -0.150618   
N144     N      0.599860000000     0.911060000000     0.861050000000    -0.151171   
N145     N      0.634680000000     0.089210000000     0.820080000000    -0.151176   
N146     N      0.601990000000     0.100400000000     0.723650000000    -0.150811   
N147     N      0.622360000000     0.121080000000     0.029880000000    -0.150803   
N148     N      0.630790000000     0.086620000000     0.933870000000    -0.150957   
N149     N      0.864520000000     0.621820000000     0.029110000000    -0.15078    
N150     N      0.852390000000     0.588430000000     0.933080000000    -0.15121    
N151     N      0.882350000000     0.797110000000     0.142970000000    -0.151108   
N152     N      0.871670000000     0.701210000000     0.108950000000    -0.150979   
N153     N      0.811320000000     0.620900000000     0.110960000000    -0.151245   
N154     N      0.715040000000     0.586910000000     0.122680000000    -0.150895   
N155     N      0.372350000000     0.257090000000     0.109390000000    -0.150834   
N156     N      0.384250000000     0.161450000000     0.143810000000    -0.151105   
N157     N      0.363750000000     0.336890000000     0.029640000000    -0.15082    
N158     N      0.351320000000     0.371360000000     0.934020000000    -0.151111   
N159     N      0.425460000000     0.338750000000     0.109220000000    -0.151181   
N160     N      0.521950000000     0.349470000000     0.142950000000    -0.15085    
N161     N      0.925000000000     0.338320000000     0.393430000000    -0.151148   
N162     N      0.021220000000     0.350330000000     0.359380000000    -0.150901   
N163     N      0.101370000000     0.411820000000     0.361080000000    -0.151067   
N164     N      0.135130000000     0.507840000000     0.372120000000    -0.1508     
N165     N      0.103760000000     0.297960000000     0.359830000000    -0.151111   
N166     N      0.115270000000     0.202180000000     0.393940000000    -0.150909   
N167     N      0.101870000000     0.599980000000     0.222550000000    -0.150863   
N168     N      0.135220000000     0.589590000000     0.318860000000    -0.15115    
N169     N      0.022290000000     0.608630000000     0.142970000000    -0.150906   
N170     N      0.925880000000     0.619970000000     0.109170000000    -0.151122   
N171     N      0.121360000000     0.836040000000     0.028590000000    -0.150941   
N172     N      0.129440000000     0.870770000000     0.932630000000    -0.151038   
N173     N      0.105550000000     0.660190000000     0.142230000000    -0.15118    
N174     N      0.116600000000     0.756090000000     0.108340000000    -0.150896   
N175     N      0.176310000000     0.837020000000     0.109530000000    -0.151179   
N176     N      0.272200000000     0.871850000000     0.122010000000    -0.150927   
N177     N      0.965470000000     0.848470000000     0.143410000000    -0.15085    
N178     N      0.061680000000     0.836730000000     0.109210000000    -0.151172   
N179     N      0.310840000000     0.336690000000     0.111400000000    -0.151043   
N180     N      0.214360000000     0.370520000000     0.121790000000    -0.150831   
N181     N      0.134960000000     0.450180000000     0.129900000000    -0.150735   
N182     N      0.101940000000     0.546470000000     0.140690000000    -0.151202   
N183     N      0.100750000000     0.358110000000     0.279460000000    -0.150926   
N184     N      0.134230000000     0.368320000000     0.183180000000    -0.151111   
N185     N      0.113040000000     0.257300000000     0.893250000000    -0.150771   
N186     N      0.103680000000     0.161370000000     0.858980000000    -0.151063   
N187     N      0.131460000000     0.370040000000     0.069310000000    -0.151118   
N188     N      0.119380000000     0.336640000000     0.973280000000    -0.150892   
N189     N      0.058090000000     0.338110000000     0.893200000000    -0.151115   
N190     N      0.961650000000     0.349570000000     0.859540000000    -0.150812   
N191     N      0.172760000000     0.337870000000     0.891620000000    -0.151169   
N192     N      0.269050000000     0.372170000000     0.881000000000    -0.150921   
O1       O      0.114920000000     0.311980000000     0.949430000000    -0.242238   
O2       O      0.092170000000     0.333910000000     0.888020000000    -0.244173   
O3       O      0.117030000000     0.281000000000     0.918130000000    -0.242073   
O4       O      0.138780000000     0.342890000000     0.896730000000    -0.244012   
O5       O      0.151590000000     0.314180000000     0.904890000000    -0.253518   
O6       O      0.111320000000     0.291180000000     0.887770000000    -0.251257   
O7       O      0.120370000000     0.342400000000     0.939400000000    -0.251552   
O8       O      0.079560000000     0.324560000000     0.916480000000    -0.253606   
O9       O      0.159470000000     0.426200000000     0.124800000000    -0.242114   
O10      O      0.128700000000     0.373520000000     0.149430000000    -0.244422   
O11      O      0.190500000000     0.395090000000     0.127020000000    -0.242398   
O12      O      0.145050000000     0.393550000000     0.090440000000    -0.253719   
O13      O      0.137290000000     0.364630000000     0.102970000000    -0.244314   
O14      O      0.180320000000     0.364940000000     0.120410000000    -0.251304   
O15      O      0.129080000000     0.416360000000     0.131460000000    -0.251366   
O16      O      0.157740000000     0.381600000000     0.161770000000    -0.253823   
O17      O      0.117920000000     0.811090000000     0.052300000000    -0.242165   
O18      O      0.142170000000     0.841650000000     0.105200000000    -0.244219   
O19      O      0.120350000000     0.779860000000     0.083480000000    -0.24224    
O20      O      0.082960000000     0.823340000000     0.085680000000    -0.253823   
O21      O      0.095800000000     0.832510000000     0.114090000000    -0.244072   
O22      O      0.115160000000     0.789950000000     0.113950000000    -0.251503   
O23      O      0.122940000000     0.841540000000     0.062490000000    -0.251379   
O24      O      0.155260000000     0.813410000000     0.095930000000    -0.25378    
O25      O      0.077310000000     0.605120000000     0.198620000000    -0.24217    
O26      O      0.099400000000     0.626610000000     0.136880000000    -0.244059   
O27      O      0.046120000000     0.602980000000     0.167500000000    -0.242387   
O28      O      0.078680000000     0.567990000000     0.154210000000    -0.253832   
O29      O      0.107640000000     0.580190000000     0.145670000000    -0.244498   
O30      O      0.056330000000     0.609730000000     0.137370000000    -0.251457   
O31      O      0.107620000000     0.598250000000     0.188690000000    -0.251364   
O32      O      0.091980000000     0.639200000000     0.165880000000    -0.253603   
O33      O      0.044970000000     0.355460000000     0.334650000000    -0.242336   
O34      O      0.106740000000     0.378020000000     0.356230000000    -0.244365   
O35      O      0.076090000000     0.353510000000     0.303390000000    -0.24229    
O36      O      0.090080000000     0.319000000000     0.336290000000    -0.253693   
O37      O      0.098340000000     0.331700000000     0.365020000000    -0.244005   
O38      O      0.106570000000     0.359590000000     0.313310000000    -0.251643   
O39      O      0.055280000000     0.349290000000     0.364870000000    -0.251529   
O40      O      0.077900000000     0.390480000000     0.347630000000    -0.253744   
O41      O      0.367350000000     0.280680000000     0.084570000000    -0.242316   
O42      O      0.344800000000     0.342040000000     0.106510000000    -0.243959   
O43      O      0.368850000000     0.312060000000     0.053200000000    -0.242209   
O44      O      0.404060000000     0.325060000000     0.085960000000    -0.253623   
O45      O      0.391500000000     0.333920000000     0.114590000000    -0.244081   
O46      O      0.362800000000     0.342260000000     0.063580000000    -0.251605   
O47      O      0.373380000000     0.290990000000     0.114820000000    -0.251578   
O48      O      0.332220000000     0.313410000000     0.097720000000    -0.253634   
O49      O      0.869180000000     0.646470000000     0.052940000000    -0.242222   
O50      O      0.845270000000     0.615770000000     0.105810000000    -0.244228   
O51      O      0.867360000000     0.677490000000     0.084150000000    -0.242203   
O52      O      0.891860000000     0.624550000000     0.114390000000    -0.244301   
O53      O      0.904480000000     0.633520000000     0.085820000000    -0.253683   
O54      O      0.873050000000     0.667340000000     0.114510000000    -0.251559   
O55      O      0.863530000000     0.616090000000     0.063000000000    -0.251441   
O56      O      0.832520000000     0.644450000000     0.097500000000    -0.253726   
O57      O      0.658720000000     0.030540000000     0.878270000000    -0.242342   
O58      O      0.628770000000     0.083830000000     0.853720000000    -0.244294   
O59      O      0.679700000000     0.091770000000     0.883890000000    -0.251819   
O60      O      0.636550000000     0.092010000000     0.900190000000    -0.243744   
O61      O      0.644430000000     0.063120000000     0.912740000000    -0.253378   
O62      O      0.690170000000     0.061920000000     0.876410000000    -0.242251   
O63      O      0.628510000000     0.040750000000     0.871370000000    -0.251561   
O64      O      0.657810000000     0.075430000000     0.841580000000    -0.253767   
O65      O      0.546450000000     0.103210000000     0.668650000000    -0.242009   
O66      O      0.608120000000     0.080460000000     0.646990000000    -0.244355   
O67      O      0.577470000000     0.105260000000     0.699630000000    -0.242166   
O68      O      0.599460000000     0.126950000000     0.637810000000    -0.24416    
O69      O      0.592050000000     0.139550000000     0.666810000000    -0.253758   
O70      O      0.607920000000     0.098830000000     0.689810000000    -0.251242   
O71      O      0.556570000000     0.109810000000     0.638450000000    -0.251248   
O72      O      0.578990000000     0.068320000000     0.655050000000    -0.253865   
O73      O      0.369730000000     0.146990000000     0.554470000000    -0.242354   
O74      O      0.332790000000     0.144970000000     0.599290000000    -0.253642   
O75      O      0.367150000000     0.178040000000     0.585690000000    -0.242268   
O76      O      0.404680000000     0.134030000000     0.587340000000    -0.253737   
O77      O      0.392100000000     0.125210000000     0.615980000000    -0.244147   
O78      O      0.373490000000     0.167970000000     0.615950000000    -0.251315   
O79      O      0.363580000000     0.116710000000     0.564540000000    -0.251507   
O80      O      0.345580000000     0.116200000000     0.607230000000    -0.244176   
O81      O      0.044880000000     0.855400000000     0.666850000000    -0.242062   
O82      O      0.098070000000     0.831040000000     0.636600000000    -0.244294   
O83      O      0.075690000000     0.853350000000     0.698040000000    -0.242345   
O84      O      0.077780000000     0.889870000000     0.652860000000    -0.253704   
O85      O      0.106960000000     0.877410000000     0.645480000000    -0.244271   
O86      O      0.106170000000     0.859730000000     0.688330000000    -0.251369   
O87      O      0.055100000000     0.848600000000     0.636730000000    -0.251316   
O88      O      0.090040000000     0.818630000000     0.665510000000    -0.253767   
O89      O      0.690240000000     0.895030000000     0.627820000000    -0.242128   
O90      O      0.637010000000     0.864890000000     0.603500000000    -0.244336   
O91      O      0.659410000000     0.926290000000     0.625810000000    -0.242333   
O92      O      0.657190000000     0.881480000000     0.662430000000    -0.25363    
O93      O      0.628140000000     0.873760000000     0.649870000000    -0.244254   
O94      O      0.628850000000     0.916580000000     0.631830000000    -0.251462   
O95      O      0.679930000000     0.864890000000     0.621330000000    -0.251324   
O96      O      0.645330000000     0.893660000000     0.590980000000    -0.253639   
O97      O      0.574510000000     0.852970000000     0.803370000000    -0.242256   
O98      O      0.596320000000     0.830950000000     0.865100000000    -0.244029   
O99      O      0.543190000000     0.854970000000     0.834540000000    -0.242187   
O100     O      0.576360000000     0.889870000000     0.847440000000    -0.253713   
O101     O      0.605010000000     0.877200000000     0.856370000000    -0.244279   
O102     O      0.553380000000     0.849230000000     0.864890000000    -0.251483   
O103     O      0.605020000000     0.858590000000     0.813500000000    -0.251462   
O104     O      0.587680000000     0.818190000000     0.836500000000    -0.253584   
O105     O      0.910320000000     0.852490000000     0.199200000000    -0.242254   
O106     O      0.888210000000     0.830740000000     0.137600000000    -0.244053   
O107     O      0.931410000000     0.847480000000     0.137910000000    -0.251656   
O108     O      0.909290000000     0.889360000000     0.154640000000    -0.253846   
O109     O      0.880350000000     0.877190000000     0.145960000000    -0.244331   
O110     O      0.941710000000     0.854340000000     0.167980000000    -0.242473   
O111     O      0.880080000000     0.859340000000     0.189030000000    -0.251431   
O112     O      0.896060000000     0.818160000000     0.166500000000    -0.253465   
O113     O      0.576550000000     0.604920000000     0.304130000000    -0.242182   
O114     O      0.606870000000     0.580440000000     0.357240000000    -0.244252   
O115     O      0.545290000000     0.603100000000     0.335470000000    -0.242296   
O116     O      0.590650000000     0.639430000000     0.336760000000    -0.253417   
O117     O      0.598830000000     0.626910000000     0.365600000000    -0.243911   
O118     O      0.555680000000     0.609780000000     0.365560000000    -0.251442   
O119     O      0.606890000000     0.598340000000     0.314180000000    -0.251448   
O120     O      0.577950000000     0.568140000000     0.348670000000    -0.253871   
O121     O      0.659210000000     0.426580000000     0.377630000000    -0.242236   
O122     O      0.637000000000     0.364910000000     0.399130000000    -0.243808   
O123     O      0.690380000000     0.395410000000     0.375540000000    -0.242156   
O124     O      0.657750000000     0.382350000000     0.340460000000    -0.253903   
O125     O      0.628840000000     0.373690000000     0.352700000000    -0.244473   
O126     O      0.680100000000     0.365290000000     0.382150000000    -0.251484   
O127     O      0.628850000000     0.416660000000     0.370940000000    -0.251248   
O128     O      0.644650000000     0.393810000000     0.411800000000    -0.253435   
O129     O      0.691250000000     0.562210000000     0.127690000000    -0.24217    
O130     O      0.629500000000     0.583790000000     0.150340000000    -0.244417   
O131     O      0.660130000000     0.531040000000     0.125700000000    -0.242311   
O132     O      0.646110000000     0.564010000000     0.091230000000    -0.25373    
O133     O      0.637950000000     0.592710000000     0.104000000000    -0.244166   
O134     O      0.629640000000     0.540950000000     0.131770000000    -0.251382   
O135     O      0.680990000000     0.592450000000     0.121630000000    -0.251377   
O136     O      0.658330000000     0.575160000000     0.162790000000    -0.253855   
O137     O      0.576890000000     0.352690000000     0.198620000000    -0.242134   
O138     O      0.607590000000     0.377220000000     0.145800000000    -0.244365   
O139     O      0.545830000000     0.354830000000     0.167500000000    -0.242262   
O140     O      0.591340000000     0.318330000000     0.166030000000    -0.253597   
O141     O      0.599040000000     0.330770000000     0.137030000000    -0.244116   
O142     O      0.555990000000     0.348130000000     0.137340000000    -0.251226   
O143     O      0.607240000000     0.359450000000     0.188730000000    -0.251449   
O144     O      0.578540000000     0.389540000000     0.153850000000    -0.25393    
O145     O      0.826400000000     0.926950000000     0.377180000000    -0.242382   
O146     O      0.828210000000     0.882890000000     0.340180000000    -0.253752   
O147     O      0.795130000000     0.895740000000     0.375130000000    -0.242201   
O148     O      0.839870000000     0.893970000000     0.411830000000    -0.253773   
O149     O      0.848320000000     0.865320000000     0.399120000000    -0.244033   
O150     O      0.805400000000     0.865490000000     0.381140000000    -0.251513   
O151     O      0.856890000000     0.916900000000     0.371360000000    -0.251473   
O152     O      0.856910000000     0.874020000000     0.352780000000    -0.244312   
O153     O      0.440400000000     0.855390000000     0.335520000000    -0.24218    
O154     O      0.387190000000     0.831750000000     0.366200000000    -0.24411    
O155     O      0.409290000000     0.853470000000     0.304470000000    -0.242207   
O156     O      0.407920000000     0.890370000000     0.349070000000    -0.253916   
O157     O      0.378840000000     0.878230000000     0.357290000000    -0.244493   
O158     O      0.378910000000     0.860050000000     0.314390000000    -0.251438   
O159     O      0.430240000000     0.848830000000     0.365710000000    -0.251517   
O160     O      0.394810000000     0.819140000000     0.337260000000    -0.253748   
O161     O      0.617020000000     0.811510000000     0.449900000000    -0.242327   
O162     O      0.594660000000     0.833260000000     0.388380000000    -0.244298   
O163     O      0.613190000000     0.790440000000     0.388430000000    -0.251615   
O164     O      0.653960000000     0.813380000000     0.405270000000    -0.253713   
O165     O      0.641180000000     0.842050000000     0.396940000000    -0.244196   
O166     O      0.619290000000     0.780370000000     0.418740000000    -0.242234   
O167     O      0.623140000000     0.841770000000     0.439770000000    -0.251524   
O168     O      0.582060000000     0.824510000000     0.417020000000    -0.253827   
O169     O      0.408250000000     0.353860000000     0.700380000000    -0.242356   
O170     O      0.385980000000     0.331600000000     0.639020000000    -0.243886   
O171     O      0.439610000000     0.355540000000     0.668920000000    -0.242427   
O172     O      0.406950000000     0.390410000000     0.655650000000    -0.253696   
O173     O      0.378030000000     0.378080000000     0.647130000000    -0.244084   
O174     O      0.429120000000     0.348760000000     0.638890000000    -0.251736   
O175     O      0.377930000000     0.360360000000     0.690220000000    -0.251558   
O176     O      0.394410000000     0.319130000000     0.667800000000    -0.253764   
O177     O      0.617520000000     0.280290000000     0.583620000000    -0.24219    
O178     O      0.593280000000     0.333150000000     0.614220000000    -0.244258   
O179     O      0.615270000000     0.311480000000     0.552420000000    -0.242147   
O180     O      0.652500000000     0.313510000000     0.596220000000    -0.253785   
O181     O      0.639700000000     0.341980000000     0.605200000000    -0.244103   
O182     O      0.620650000000     0.341880000000     0.562570000000    -0.251504   
O183     O      0.612350000000     0.290420000000     0.614090000000    -0.251413   
O184     O      0.580290000000     0.324040000000     0.585860000000    -0.253796   
O185     O      0.116120000000     0.646300000000     0.552560000000    -0.242158   
O186     O      0.094000000000     0.624620000000     0.614280000000    -0.244135   
O187     O      0.118220000000     0.677470000000     0.583650000000    -0.242254   
O188     O      0.153180000000     0.644580000000     0.596860000000    -0.253796   
O189     O      0.140520000000     0.615960000000     0.605530000000    -0.244152   
O190     O      0.112330000000     0.667430000000     0.614010000000    -0.251321   
O191     O      0.122050000000     0.616000000000     0.562710000000    -0.251353   
O192     O      0.081240000000     0.633100000000     0.585620000000    -0.253513   
O193     O      0.191100000000     0.562920000000     0.375470000000    -0.242275   
O194     O      0.137550000000     0.593130000000     0.399120000000    -0.24387    
O195     O      0.159810000000     0.531640000000     0.377260000000    -0.242157   
O196     O      0.158470000000     0.575980000000     0.340350000000    -0.25378    
O197     O      0.129600000000     0.584720000000     0.352640000000    -0.244242   
O198     O      0.129470000000     0.541700000000     0.370690000000    -0.251496   
O199     O      0.180730000000     0.593020000000     0.382030000000    -0.251667   
O200     O      0.145640000000     0.564320000000     0.411720000000    -0.253637   
O201     O      0.367120000000     0.678440000000     0.419920000000    -0.242337   
O202     O      0.344970000000     0.616780000000     0.398170000000    -0.244075   
O203     O      0.369140000000     0.647250000000     0.451120000000    -0.242133   
O204     O      0.404250000000     0.634550000000     0.417900000000    -0.253586   
O205     O      0.391410000000     0.625560000000     0.389440000000    -0.24424    
O206     O      0.363740000000     0.616860000000     0.440950000000    -0.251645   
O207     O      0.372540000000     0.668310000000     0.389500000000    -0.251479   
O208     O      0.332120000000     0.645250000000     0.407060000000    -0.253629   
O209     O      0.294670000000     0.562950000000     0.627900000000    -0.242227   
O210     O      0.347970000000     0.593580000000     0.604430000000    -0.244017   
O211     O      0.325830000000     0.531890000000     0.626030000000    -0.242154   
O212     O      0.356150000000     0.584740000000     0.650920000000    -0.244374   
O213     O      0.327170000000     0.576200000000     0.663080000000    -0.253858   
O214     O      0.356210000000     0.541820000000     0.632610000000    -0.251115   
O215     O      0.304880000000     0.593130000000     0.621470000000    -0.251475   
O216     O      0.340340000000     0.564690000000     0.591750000000    -0.253564   
O217     O      0.188300000000     0.896490000000     0.875330000000    -0.241979   
O218     O      0.126740000000     0.874790000000     0.852400000000    -0.244609   
O219     O      0.157180000000     0.927480000000     0.877410000000    -0.242222   
O220     O      0.142600000000     0.894610000000     0.911590000000    -0.25359    
O221     O      0.135280000000     0.865640000000     0.898920000000    -0.244104   
O222     O      0.126750000000     0.917610000000     0.870970000000    -0.251134   
O223     O      0.178120000000     0.866320000000     0.881890000000    -0.251314   
O224     O      0.155780000000     0.883180000000     0.840280000000    -0.254007   
O225     O      0.323930000000     0.428130000000     0.878450000000    -0.242297   
O226     O      0.354750000000     0.375480000000     0.853950000000    -0.244524   
O227     O      0.292840000000     0.396940000000     0.876360000000    -0.242077   
O228     O      0.337670000000     0.394990000000     0.913070000000    -0.253735   
O229     O      0.346060000000     0.366400000000     0.900190000000    -0.244153   
O230     O      0.303100000000     0.366660000000     0.882210000000    -0.251421   
O231     O      0.354500000000     0.418230000000     0.872770000000    -0.251313   
O232     O      0.325980000000     0.384120000000     0.841370000000    -0.253923   
O233     O      0.367420000000     0.813170000000     0.950320000000    -0.242262   
O234     O      0.342540000000     0.843490000000     0.897460000000    -0.244361   
O235     O      0.364820000000     0.781970000000     0.919320000000    -0.242165   
O236     O      0.401830000000     0.826520000000     0.917180000000    -0.253723   
O237     O      0.389070000000     0.834570000000     0.888400000000    -0.244183   
O238     O      0.370720000000     0.791950000000     0.888940000000    -0.251424   
O239     O      0.361220000000     0.843430000000     0.940220000000    -0.2515     
O240     O      0.329880000000     0.814930000000     0.906320000000    -0.253806   
O241     O      0.438420000000     0.603950000000     0.836360000000    -0.242118   
O242     O      0.405630000000     0.569510000000     0.850210000000    -0.253976   
O243     O      0.407490000000     0.606140000000     0.805160000000    -0.242196   
O244     O      0.393230000000     0.640730000000     0.837700000000    -0.253631   
O245     O      0.385180000000     0.628320000000     0.866610000000    -0.244359   
O246     O      0.377070000000     0.599560000000     0.814960000000    -0.251222   
O247     O      0.428220000000     0.610830000000     0.866470000000    -0.251317   
O248     O      0.376490000000     0.581870000000     0.857870000000    -0.244468   
O249     O      0.868530000000     0.147460000000     0.951060000000    -0.242122   
O250     O      0.890320000000     0.126090000000     0.889140000000    -0.24411    
O251     O      0.865830000000     0.178710000000     0.919860000000    -0.242195   
O252     O      0.830880000000     0.144940000000     0.908160000000    -0.253819   
O253     O      0.843970000000     0.116880000000     0.898340000000    -0.244028   
O254     O      0.870310000000     0.168600000000     0.889280000000    -0.251605   
O255     O      0.863960000000     0.116940000000     0.940880000000    -0.251524   
O256     O      0.903400000000     0.135800000000     0.917260000000    -0.253913   
O257     O      0.615390000000     0.646530000000     0.950820000000    -0.242279   
O258     O      0.651970000000     0.644990000000     0.906140000000    -0.253784   
O259     O      0.617130000000     0.677790000000     0.919440000000    -0.242214   
O260     O      0.592700000000     0.624570000000     0.889480000000    -0.243993   
O261     O      0.580130000000     0.633560000000     0.918070000000    -0.253587   
O262     O      0.610750000000     0.667490000000     0.889260000000    -0.25158    
O263     O      0.621300000000     0.616260000000     0.940560000000    -0.251509   
O264     O      0.639340000000     0.616330000000     0.897580000000    -0.244214   
O265     O      0.868390000000     0.811280000000     0.552550000000    -0.242325   
O266     O      0.890710000000     0.833170000000     0.613980000000    -0.244131   
O267     O      0.866220000000     0.780030000000     0.583840000000    -0.242317   
O268     O      0.831430000000     0.812950000000     0.597050000000    -0.253647   
O269     O      0.844180000000     0.841530000000     0.605750000000    -0.244007   
O270     O      0.872450000000     0.790220000000     0.614090000000    -0.251638   
O271     O      0.862150000000     0.841490000000     0.562780000000    -0.251605   
O272     O      0.903330000000     0.824250000000     0.585390000000    -0.253704   
O273     O      0.908730000000     0.604820000000     0.699260000000    -0.24229    
O274     O      0.878320000000     0.580400000000     0.646210000000    -0.244267   
O275     O      0.940020000000     0.602810000000     0.668010000000    -0.242143   
O276     O      0.895080000000     0.639380000000     0.666360000000    -0.253725   
O277     O      0.886700000000     0.626730000000     0.637640000000    -0.244067   
O278     O      0.929740000000     0.609040000000     0.637780000000    -0.251569   
O279     O      0.878300000000     0.598700000000     0.689190000000    -0.251571   
O280     O      0.907080000000     0.567890000000     0.655010000000    -0.253779   
O281     O      0.793470000000     0.563420000000     0.875410000000    -0.242128   
O282     O      0.855330000000     0.584950000000     0.852980000000    -0.244403   
O283     O      0.824440000000     0.532290000000     0.877420000000    -0.24223    
O284     O      0.838770000000     0.564950000000     0.911930000000    -0.253558   
O285     O      0.846690000000     0.593830000000     0.899400000000    -0.24413    
O286     O      0.854910000000     0.542100000000     0.871110000000    -0.251348   
O287     O      0.803680000000     0.593620000000     0.881770000000    -0.251201   
O288     O      0.826370000000     0.576770000000     0.840520000000    -0.253759   
O289     O      0.906700000000     0.353180000000     0.804060000000    -0.242277   
O290     O      0.876200000000     0.378270000000     0.856840000000    -0.244551   
O291     O      0.937780000000     0.355540000000     0.835100000000    -0.242145   
O292     O      0.891530000000     0.319330000000     0.836790000000    -0.253676   
O293     O      0.884710000000     0.331900000000     0.865940000000    -0.244106   
O294     O      0.927610000000     0.348410000000     0.865160000000    -0.251288   
O295     O      0.876390000000     0.360230000000     0.813880000000    -0.251086   
O296     O      0.905280000000     0.390430000000     0.848620000000    -0.253952   
O297     O      0.866990000000     0.280490000000     0.419090000000    -0.242237   
O298     O      0.891030000000     0.333280000000     0.388330000000    -0.244242   
O299     O      0.868840000000     0.311700000000     0.450100000000    -0.242177   
O300     O      0.831810000000     0.313410000000     0.405970000000    -0.253909   
O301     O      0.844490000000     0.341950000000     0.397100000000    -0.244339   
O302     O      0.863180000000     0.342030000000     0.439900000000    -0.251614   
O303     O      0.872590000000     0.290480000000     0.388650000000    -0.251449   
O304     O      0.903800000000     0.324850000000     0.417000000000    -0.253639   
O305     O      0.825170000000     0.426870000000     0.624960000000    -0.242466   
O306     O      0.847290000000     0.365260000000     0.603360000000    -0.244005   
O307     O      0.793800000000     0.395710000000     0.626870000000    -0.242255   
O308     O      0.826250000000     0.382580000000     0.662000000000    -0.253795   
O309     O      0.855140000000     0.373730000000     0.649840000000    -0.24428    
O310     O      0.804080000000     0.365610000000     0.620200000000    -0.251665   
O311     O      0.855430000000     0.416760000000     0.631760000000    -0.251619   
O312     O      0.839460000000     0.394110000000     0.590690000000    -0.253504   
O313     O      0.357470000000     0.917880000000     0.132660000000    -0.251542   
O314     O      0.349370000000     0.866700000000     0.103970000000    -0.243808   
O315     O      0.295760000000     0.896590000000     0.127880000000    -0.242329   
O316     O      0.357310000000     0.874830000000     0.150500000000    -0.244049   
O317     O      0.328380000000     0.883390000000     0.162810000000    -0.253638   
O318     O      0.306290000000     0.866620000000     0.121000000000    -0.251739   
O319     O      0.327140000000     0.928050000000     0.126220000000    -0.242259   
O320     O      0.341030000000     0.895490000000     0.091480000000    -0.253467   
O321     O      0.910770000000     0.104850000000     0.304940000000    -0.241973   
O322     O      0.896380000000     0.139380000000     0.337540000000    -0.253701   
O323     O      0.941700000000     0.102870000000     0.336020000000    -0.242239   
O324     O      0.908840000000     0.068100000000     0.349700000000    -0.25374    
O325     O      0.879790000000     0.080530000000     0.357600000000    -0.244467   
O326     O      0.931550000000     0.109320000000     0.366240000000    -0.25124    
O327     O      0.880310000000     0.098450000000     0.314740000000    -0.251233   
O328     O      0.888570000000     0.126940000000     0.366500000000    -0.244301   
O329     O      0.105820000000     0.098770000000     0.813190000000    -0.251604   
O330     O      0.105550000000     0.081350000000     0.856330000000    -0.244163   
O331     O      0.054620000000     0.111440000000     0.864200000000    -0.251788   
O332     O      0.089950000000     0.140280000000     0.835500000000    -0.253368   
O333     O      0.097830000000     0.127750000000     0.864420000000    -0.243767   
O334     O      0.044180000000     0.104030000000     0.834300000000    -0.242224   
O335     O      0.075660000000     0.105810000000     0.802930000000    -0.242483   
O336     O      0.076520000000     0.069190000000     0.847930000000    -0.253613   
O337     O      0.120160000000     0.178500000000     0.418690000000    -0.242494   
O338     O      0.095940000000     0.125330000000     0.388520000000    -0.24413    
O339     O      0.124830000000     0.117040000000     0.439640000000    -0.251673   
O340     O      0.155190000000     0.145720000000     0.405460000000    -0.253737   
O341     O      0.142540000000     0.117120000000     0.396690000000    -0.243853   
O342     O      0.118210000000     0.147140000000     0.449960000000    -0.242153   
O343     O      0.114070000000     0.168300000000     0.388430000000    -0.25167    
O344     O      0.083380000000     0.133940000000     0.417220000000    -0.253712   
O345     O      0.160350000000     0.030870000000     0.625290000000    -0.242106   
O346     O      0.138500000000     0.092550000000     0.603270000000    -0.244023   
O347     O      0.191610000000     0.062090000000     0.627420000000    -0.242132   
O348     O      0.158230000000     0.074640000000     0.662290000000    -0.253797   
O349     O      0.129670000000     0.083710000000     0.649530000000    -0.244282   
O350     O      0.181350000000     0.092430000000     0.621850000000    -0.251544   
O351     O      0.129750000000     0.040920000000     0.630550000000    -0.251288   
O352     O      0.147390000000     0.064080000000     0.590450000000    -0.253678   
O353     O      0.797590000000     0.062340000000     0.127960000000    -0.242304   
O354     O      0.850680000000     0.093100000000     0.104330000000    -0.244017   
O355     O      0.828680000000     0.031240000000     0.125590000000    -0.242234   
O356     O      0.830130000000     0.075610000000     0.162900000000    -0.253889   
O357     O      0.859170000000     0.083950000000     0.150740000000    -0.244587   
O358     O      0.859040000000     0.041050000000     0.132440000000    -0.251159   
O359     O      0.807830000000     0.092360000000     0.120900000000    -0.251524   
O360     O      0.843720000000     0.064030000000     0.091680000000    -0.253511   
O361     O      0.620840000000     0.177240000000     0.084570000000    -0.242338   
O362     O      0.656070000000     0.144180000000     0.097170000000    -0.253775   
O363     O      0.618510000000     0.145970000000     0.053600000000    -0.242119   
O364     O      0.596790000000     0.124670000000     0.115560000000    -0.24409    
O365     O      0.584000000000     0.132860000000     0.086830000000    -0.253828   
O366     O      0.624200000000     0.115630000000     0.063780000000    -0.251257   
O367     O      0.615410000000     0.167270000000     0.115040000000    -0.251364   
O368     O      0.643360000000     0.115790000000     0.106510000000    -0.244278   
O369     O      0.296650000000     0.063590000000     0.376330000000    -0.242028   
O370     O      0.358690000000     0.084910000000     0.354320000000    -0.244274   
O371     O      0.327540000000     0.032360000000     0.378550000000    -0.241935   
O372     O      0.341520000000     0.065010000000     0.413280000000    -0.253745   
O373     O      0.349870000000     0.093770000000     0.400770000000    -0.244398   
O374     O      0.358060000000     0.042100000000     0.372350000000    -0.251153   
O375     O      0.306910000000     0.093720000000     0.382930000000    -0.251396   
O376     O      0.329600000000     0.077160000000     0.341860000000    -0.253714   
O377     O      0.411540000000     0.105770000000     0.200530000000    -0.242278   
O378     O      0.380770000000     0.081440000000     0.147760000000    -0.244381   
O379     O      0.442670000000     0.103800000000     0.169370000000    -0.242185   
O380     O      0.389500000000     0.127660000000     0.138780000000    -0.244096   
O381     O      0.397830000000     0.140450000000     0.167450000000    -0.253623   
O382     O      0.432450000000     0.109700000000     0.139060000000    -0.251354   
O383     O      0.381000000000     0.100060000000     0.190570000000    -0.251396   
O384     O      0.409560000000     0.068860000000     0.156320000000    -0.253813   


