data_structure

_audit_creation_method RASPA-1.0
_audit_creation_date 2023-5-23
_audit_author_name 'Poobodin Mano'

_cell_length_a    41.5995
_cell_length_b    42.1639
_cell_length_c    42.7419
_cell_angle_alpha 89.9989
_cell_angle_beta  89.9986
_cell_angle_gamma 119.95
_cell_volume      64957.9

_symmetry_cell_setting          triclinic
_symmetry_space_group_name_Hall 'P 1'
_symmetry_space_group_name_H-M  'P 1'
_symmetry_Int_Tables_number     1

_symmetry_equiv_pos_as_xyz 'x,y,z'

loop_
_atom_site_label
_atom_site_type_symbol
_atom_site_fract_x
_atom_site_fract_y
_atom_site_fract_z
_atom_site_charge
C1       C      0.475530000000     0.564650000000     0.216080000000     0.341013   
C2       C      0.451700000000     0.633190000000     0.281630000000     0.342812   
C3       C      0.345820000000     0.527680000000     0.234290000000     0.343548   
C4       C      0.410210000000     0.506250000000     0.306920000000     0.34096    
C5       C      0.143970000000     0.504770000000     0.122990000000     0.344073   
C6       C      0.077170000000     0.494900000000     0.526230000000     0.343578   
C7       C      0.060320000000     0.548180000000     0.114730000000     0.341497   
C8       C      0.175560000000     0.604610000000     0.058090000000     0.345053   
C9       C      0.475200000000     0.835920000000     0.386200000000     0.344221   
C10      C      0.483060000000     0.902040000000     0.483010000000     0.343181   
C11      C      0.430220000000     0.917730000000     0.394420000000     0.34107    
C12      C      0.374390000000     0.803140000000     0.451120000000     0.344895   
C13      C      0.894080000000     0.488040000000     0.276510000000     0.34348    
C14      C      0.827150000000     0.478460000000     0.373070000000     0.344301   
C15      C      0.795320000000     0.378610000000     0.308150000000     0.345068   
C16      C      0.910690000000     0.434930000000     0.364680000000     0.341519   
C17      C      0.496180000000     0.420160000000     0.466130000000     0.341214   
C18      C      0.519560000000     0.351250000000     0.531660000000     0.342774   
C19      C      0.625720000000     0.456560000000     0.484420000000     0.34348    
C20      C      0.562150000000     0.479170000000     0.057000000000     0.340666   
C21      C      0.495730000000     0.148310000000     0.136160000000     0.343882   
C22      C      0.487410000000     0.081940000000     0.232960000000     0.34317    
C23      C      0.540140000000     0.066020000000     0.144410000000     0.340918   
C24      C      0.596330000000     0.180530000000     0.201200000000     0.345141   
C25      C      0.495320000000     0.174070000000     0.084010000000    -0.0287832  
C26      C      0.486740000000     0.304130000000     0.072320000000    -0.0279702  
C27      C      0.512710000000     0.289290000000     0.527670000000    -0.0279028  
C28      C      0.499670000000     0.260030000000     0.051180000000     0.0187981  
C29      C      0.483560000000     0.267690000000     0.076290000000     0.0183497  
C30      C      0.470450000000     0.244580000000     0.102460000000    -0.0647977  
C31      C      0.466960000000     0.187180000000     0.128020000000    -0.0284204  
C32      C      0.503400000000     0.228800000000     0.050800000000    -0.0653655  
C33      C      0.473820000000     0.213100000000     0.101930000000     0.0184353  
C34      C      0.489890000000     0.205470000000     0.076780000000     0.0189032  
C35      C      0.803410000000     0.480670000000     0.425890000000    -0.0286145  
C36      C      0.671800000000     0.488710000000     0.441900000000    -0.0278539  
C37      C      0.689080000000     0.464340000000     0.486250000000    -0.0277768  
C38      C      0.718450000000     0.478070000000     0.461940000000     0.018695   
C39      C      0.708650000000     0.492040000000     0.436640000000     0.0184167  
C40      C      0.730160000000     0.503310000000     0.409300000000    -0.0648427  
C41      C      0.786820000000     0.505720000000     0.381690000000    -0.0283138  
C42      C      0.750120000000     0.474430000000     0.461230000000    -0.0651872  
C43      C      0.762230000000     0.500270000000     0.408800000000     0.0184805  
C44      C      0.771860000000     0.486110000000     0.434060000000     0.0188093  
C45      C      0.660920000000     0.209870000000     0.222680000000    -0.0272024  
C46      C      0.731190000000     0.346500000000     0.287450000000    -0.0282355  
C47      C      0.767180000000     0.315510000000     0.285580000000    -0.0271528  
C48      C      0.731030000000     0.293570000000     0.269270000000     0.0175482  
C49      C      0.710830000000     0.311580000000     0.270200000000     0.0197563  
C50      C      0.676310000000     0.297370000000     0.255550000000    -0.0663908  
C51      C      0.627120000000     0.243100000000     0.223390000000    -0.0282197  
C52      C      0.717250000000     0.259710000000     0.254040000000    -0.0643427  
C53      C      0.662770000000     0.263850000000     0.240140000000     0.0197491  
C54      C      0.682390000000     0.245240000000     0.239590000000     0.0175707  
C55      C      0.485270000000     0.074020000000     0.290600000000    -0.0283946  
C56      C      0.403850000000     0.934970000000     0.349420000000    -0.0280299  
C57      C      0.452840000000     0.982680000000     0.380690000000    -0.0284442  
C58      C      0.447310000000     0.998180000000     0.351440000000     0.019147   
C59      C      0.419340000000     0.971030000000     0.333500000000     0.0181121  
C60      C      0.412250000000     0.978060000000     0.302910000000    -0.0645205  
C61      C      0.435840000000     0.027190000000     0.259020000000    -0.0278354  
C62      C      0.469790000000     0.033610000000     0.339820000000    -0.0655249  
C63      C      0.434320000000     0.013800000000     0.291480000000     0.0181018  
C64      C      0.462400000000     0.040740000000     0.309480000000     0.0191701  
C65      C      0.534600000000     0.956790000000     0.509080000000    -0.0277652  
C66      C      0.517260000000     0.001030000000     0.130660000000    -0.028524   
C67      C      0.566470000000     0.048630000000     0.099460000000    -0.0279834  
C68      C      0.550890000000     0.012570000000     0.083540000000     0.0180761  
C69      C      0.522800000000     0.985480000000     0.101440000000     0.019197   
C70      C      0.500580000000     0.950450000000     0.589850000000    -0.0655688  
C71      C      0.485090000000     0.910020000000     0.540640000000    -0.0283753  
C72      C      0.558040000000     0.005490000000     0.052990000000    -0.0643573  
C73      C      0.507970000000     0.943300000000     0.559520000000     0.0192069  
C74      C      0.536130000000     0.970190000000     0.541540000000     0.017983   
C75      C      0.021900000000     0.443320000000     0.500620000000    -0.027792   
C76      C      0.976610000000     0.457340000000     0.378220000000    -0.028553   
C77      C      0.928380000000     0.409630000000     0.410050000000    -0.028009   
C78      C      0.964960000000     0.425260000000     0.425930000000     0.0181268  
C79      C      0.992420000000     0.452500000000     0.407680000000     0.0191789  
C80      C      0.028330000000     0.475020000000     0.419200000000    -0.065529   
C81      C      0.069300000000     0.491480000000     0.468530000000    -0.0283647  
C82      C      0.972140000000     0.418950000000     0.456720000000    -0.0644743  
C83      C      0.035610000000     0.468420000000     0.449750000000     0.0191783  
C84      C      0.008360000000     0.441030000000     0.468040000000     0.0180841  
C85      C      0.042680000000     0.573430000000     0.160170000000    -0.0280755  
C86      C      0.901870000000     0.491490000000     0.218810000000    -0.0283294  
C87      C      0.949300000000     0.539660000000     0.250870000000    -0.0278295  
C88      C      0.962780000000     0.541990000000     0.218260000000     0.0181115  
C89      C      0.935500000000     0.514600000000     0.199990000000     0.0191367  
C90      C      0.942760000000     0.507990000000     0.169430000000    -0.0654749  
C91      C      0.994420000000     0.525700000000     0.128380000000    -0.0285494  
C92      C      0.998980000000     0.564060000000     0.206910000000    -0.0644846  
C93      C      0.978660000000     0.530480000000     0.157890000000     0.0191632  
C94      C      0.006130000000     0.557730000000     0.176120000000     0.0181698  
C95      C      0.203730000000     0.667560000000     0.535350000000    -0.0273943  
C96      C      0.343800000000     0.740520000000     0.473190000000    -0.028082   
C97      C      0.309770000000     0.773520000000     0.472540000000    -0.0271961  
C98      C      0.288390000000     0.738100000000     0.489400000000     0.0176304  
C99      C      0.308140000000     0.719610000000     0.489910000000     0.0196679  
C100     C      0.294710000000     0.686080000000     0.505270000000    -0.0662865  
C101     C      0.239930000000     0.636770000000     0.537140000000    -0.0281829  
C102     C      0.253510000000     0.723480000000     0.503840000000    -0.0644736  
C103     C      0.260170000000     0.671710000000     0.519900000000     0.0196791  
C104     C      0.239850000000     0.689610000000     0.519020000000     0.0176932  
C105     C      0.502980000000     0.576840000000     0.162580000000    -0.028129   
C106     C      0.570460000000     0.499140000000     0.112720000000    -0.0281906  
C107     C      0.552940000000     0.530290000000     0.074380000000    -0.028301   
C108     C      0.548190000000     0.540450000000     0.106550000000     0.0187188  
C109     C      0.558510000000     0.522940000000     0.128450000000     0.018688   
C110     C      0.552580000000     0.524780000000     0.160510000000    -0.0650096  
C111     C      0.522670000000     0.547670000000     0.201080000000    -0.0281232  
C112     C      0.530750000000     0.560170000000     0.115470000000    -0.0650937  
C113     C      0.535990000000     0.545260000000     0.169480000000     0.018648   
C114     C      0.525060000000     0.562220000000     0.147540000000     0.0187423  
C115     C      0.419330000000     0.455100000000     0.324360000000    -0.028216   
C116     C      0.449290000000     0.437460000000     0.451090000000    -0.0281412  
C117     C      0.468790000000     0.408090000000     0.412620000000    -0.0281282  
C118     C      0.446860000000     0.422870000000     0.397550000000     0.0187251  
C119     C      0.436020000000     0.439930000000     0.419490000000     0.0186388  
C120     C      0.419660000000     0.460620000000     0.410490000000    -0.0649974  
C121     C      0.401980000000     0.486410000000     0.362680000000    -0.0282378  
C122     C      0.441270000000     0.425020000000     0.365480000000    -0.0650763  
C123     C      0.413840000000     0.462550000000     0.378430000000     0.018722   
C124     C      0.424050000000     0.444930000000     0.356540000000     0.0186843  
C125     C      0.476030000000     0.810500000000     0.333980000000    -0.0286745  
C126     C      0.486320000000     0.681430000000     0.321720000000    -0.0277326  
C127     C      0.458380000000     0.695090000000     0.277630000000    -0.0279973  
C128     C      0.473310000000     0.725520000000     0.300600000000     0.0188455  
C129     C      0.489280000000     0.717780000000     0.325770000000     0.0182824  
C130     C      0.501850000000     0.740610000000     0.352150000000    -0.0647479  
C131     C      0.504390000000     0.797440000000     0.378010000000    -0.0283089  
C132     C      0.468940000000     0.756380000000     0.300450000000    -0.065281   
C133     C      0.498040000000     0.771850000000     0.351770000000     0.0183943  
C134     C      0.481970000000     0.779450000000     0.326600000000     0.0188942  
C135     C      0.167720000000     0.502590000000     0.175810000000    -0.0286386  
C136     C      0.299820000000     0.495430000000     0.191750000000    -0.0277792  
C137     C      0.282310000000     0.519560000000     0.236130000000    -0.0279445  
C138     C      0.252950000000     0.505710000000     0.211820000000     0.0187872  
C139     C      0.262870000000     0.491870000000     0.186500000000     0.0183611  
C140     C      0.241370000000     0.480520000000     0.159160000000    -0.0647899  
C141     C      0.184540000000     0.477780000000     0.131570000000    -0.0284214  
C142     C      0.221140000000     0.509130000000     0.211130000000    -0.0652856  
C143     C      0.209170000000     0.483350000000     0.158680000000     0.0184765  
C144     C      0.199410000000     0.497360000000     0.183960000000     0.0188536  
C145     C      0.475390000000     0.563910000000     0.716380000000     0.341128   
C146     C      0.451540000000     0.632530000000     0.781840000000     0.342988   
C147     C      0.345700000000     0.527040000000     0.734440000000     0.343482   
C148     C      0.409990000000     0.505610000000     0.807220000000     0.340857   
C149     C      0.144260000000     0.504590000000     0.622750000000     0.344057   
C150     C      0.076860000000     0.495110000000     0.026500000000     0.343549   
C151     C      0.060560000000     0.547920000000     0.614450000000     0.341296   
C152     C      0.175810000000     0.604450000000     0.557870000000     0.345116   
C153     C      0.475060000000     0.835420000000     0.886210000000     0.344152   
C154     C      0.482930000000     0.901620000000     0.982990000000     0.343174   
C155     C      0.430360000000     0.917480000000     0.894330000000     0.340989   
C156     C      0.374250000000     0.802880000000     0.951060000000     0.345022   
C157     C      0.894280000000     0.488340000000     0.776190000000     0.343655   
C158     C      0.827430000000     0.479380000000     0.872560000000     0.344157   
C159     C      0.795430000000     0.379030000000     0.808190000000     0.34493    
C160     C      0.910680000000     0.435430000000     0.864700000000     0.341447   
C161     C      0.496510000000     0.420280000000     0.966440000000     0.341284   
C162     C      0.521120000000     0.352250000000     0.032090000000     0.342689   
C163     C      0.626410000000     0.457700000000     0.984260000000     0.343461   
C164     C      0.561520000000     0.478250000000     0.557060000000     0.340838   
C165     C      0.495740000000     0.148430000000     0.636310000000     0.343997   
C166     C      0.487640000000     0.082060000000     0.733070000000     0.343085   
C167     C      0.540400000000     0.066370000000     0.644490000000     0.340968   
C168     C      0.596430000000     0.180860000000     0.701350000000     0.344983   
C169     C      0.494980000000     0.173880000000     0.584090000000    -0.0287439  
C170     C      0.484830000000     0.303040000000     0.571760000000    -0.0278775  
C171     C      0.515000000000     0.290580000000     0.028300000000    -0.0283424  
C172     C      0.497760000000     0.258880000000     0.550660000000     0.0187819  
C173     C      0.481830000000     0.266670000000     0.575830000000     0.0183545  
C174     C      0.469260000000     0.243870000000     0.602220000000    -0.064749   
C175     C      0.466670000000     0.187030000000     0.628120000000    -0.0283802  
C176     C      0.502090000000     0.227990000000     0.550530000000    -0.0652545  
C177     C      0.473030000000     0.212600000000     0.601870000000     0.0183962  
C178     C      0.489070000000     0.204950000000     0.576700000000     0.0189184  
C179     C      0.804110000000     0.482270000000     0.925390000000    -0.028552   
C180     C      0.672110000000     0.489580000000     0.941430000000    -0.0278108  
C181     C      0.690010000000     0.466090000000     0.986020000000    -0.0280098  
C182     C      0.719190000000     0.479640000000     0.961550000000     0.0187872  
C183     C      0.709040000000     0.493120000000     0.936120000000     0.0183664  
C184     C      0.730310000000     0.504080000000     0.908640000000    -0.0648083  
C185     C      0.786910000000     0.506450000000     0.880950000000    -0.0282845  
C186     C      0.750990000000     0.476230000000     0.960850000000    -0.0652452  
C187     C      0.762510000000     0.501270000000     0.908140000000     0.0184597  
C188     C      0.772490000000     0.487610000000     0.933540000000     0.0188128  
C189     C      0.661080000000     0.210320000000     0.722690000000    -0.0271687  
C190     C      0.731160000000     0.346730000000     0.787800000000    -0.0281562  
C191     C      0.767340000000     0.315950000000     0.785580000000    -0.0273057  
C192     C      0.731140000000     0.293960000000     0.769370000000     0.0176236  
C193     C      0.710820000000     0.311840000000     0.770500000000     0.0197004  
C194     C      0.676240000000     0.297560000000     0.755960000000    -0.066324   
C195     C      0.627060000000     0.243320000000     0.723750000000    -0.0280917  
C196     C      0.717420000000     0.260170000000     0.754040000000    -0.0643482  
C197     C      0.662750000000     0.264110000000     0.740450000000     0.0196887  
C198     C      0.682490000000     0.245630000000     0.739700000000     0.0175766  
C199     C      0.485570000000     0.074000000000     0.790690000000    -0.0284175  
C200     C      0.404080000000     0.934850000000     0.849350000000    -0.0279682  
C201     C      0.453130000000     0.982470000000     0.880640000000    -0.0285324  
C202     C      0.447610000000     0.998030000000     0.851420000000     0.0191821  
C203     C      0.419610000000     0.970930000000     0.833470000000     0.0180682  
C204     C      0.412500000000     0.978040000000     0.802910000000    -0.0645008  
C205     C      0.436090000000     0.027250000000     0.759090000000    -0.0278766  
C206     C      0.470110000000     0.033480000000     0.839840000000    -0.0655454  
C207     C      0.434590000000     0.013790000000     0.791520000000     0.0181082  
C208     C      0.462710000000     0.040680000000     0.809530000000     0.0191799  
C209     C      0.534460000000     0.956340000000     0.009120000000    -0.0276732  
C210     C      0.517610000000     0.001390000000     0.630730000000    -0.0285174  
C211     C      0.566680000000     0.049050000000     0.599470000000    -0.027998   
C212     C      0.551110000000     0.013000000000     0.583530000000     0.0180872  
C213     C      0.523080000000     0.985890000000     0.601460000000     0.0191801  
C214     C      0.500260000000     0.950060000000     0.089810000000    -0.0656237  
C215     C      0.484830000000     0.909610000000     0.040620000000    -0.0284557  
C216     C      0.558220000000     0.005940000000     0.552960000000    -0.0644131  
C217     C      0.507700000000     0.942890000000     0.059500000000     0.0192628  
C218     C      0.535910000000     0.969760000000     0.041550000000     0.0179596  
C219     C      0.021520000000     0.443610000000     0.000880000000    -0.0278072  
C220     C      0.976530000000     0.457710000000     0.878370000000    -0.0285567  
C221     C      0.928160000000     0.410130000000     0.910210000000    -0.028065   
C222     C      0.964720000000     0.425680000000     0.926130000000     0.018133   
C223     C      0.992250000000     0.452850000000     0.907880000000     0.0191731  
C224     C      0.028170000000     0.475270000000     0.919420000000    -0.0655416  
C225     C      0.069060000000     0.491650000000     0.968790000000    -0.0284878  
C226     C      0.971820000000     0.419360000000     0.956940000000    -0.0644774  
C227     C      0.035370000000     0.468660000000     0.950000000000     0.019211   
C228     C      0.008040000000     0.441350000000     0.968290000000     0.0180208  
C229     C      0.042900000000     0.573260000000     0.659800000000    -0.0279866  
C230     C      0.902080000000     0.491530000000     0.718490000000    -0.0283702  
C231     C      0.949510000000     0.539830000000     0.750450000000    -0.0277692  
C232     C      0.963000000000     0.542030000000     0.717870000000     0.0180884  
C233     C      0.935720000000     0.514570000000     0.699650000000     0.019156   
C234     C      0.942980000000     0.507830000000     0.669130000000    -0.0654888  
C235     C      0.994650000000     0.525390000000     0.628100000000    -0.0285562  
C236     C      0.999200000000     0.564060000000     0.706500000000    -0.0645032  
C237     C      0.978890000000     0.530280000000     0.657580000000     0.019161   
C238     C      0.006350000000     0.557610000000     0.675750000000     0.0181385  
C239     C      0.203540000000     0.667670000000     0.035450000000    -0.0272035  
C240     C      0.343580000000     0.740300000000     0.973230000000    -0.0281842  
C241     C      0.309620000000     0.773380000000     0.972460000000    -0.0272469  
C242     C      0.288220000000     0.738010000000     0.989390000000     0.0175241  
C243     C      0.307930000000     0.719490000000     0.989980000000     0.0196439  
C244     C      0.294480000000     0.686010000000     0.005430000000    -0.0662647  
C245     C      0.239690000000     0.636840000000     0.037380000000    -0.028277   
C246     C      0.253350000000     0.723480000000     0.003850000000    -0.0643397  
C247     C      0.259950000000     0.671730000000     0.020070000000     0.0197521  
C248     C      0.239670000000     0.689650000000     0.019120000000     0.017595   
C249     C      0.502950000000     0.576200000000     0.662920000000    -0.0281221  
C250     C      0.569810000000     0.498010000000     0.612840000000    -0.0282867  
C251     C      0.552590000000     0.529490000000     0.574590000000    -0.0282588  
C252     C      0.547870000000     0.539600000000     0.606780000000     0.0186757  
C253     C      0.558020000000     0.521890000000     0.628640000000     0.0187557  
C254     C      0.552070000000     0.523670000000     0.660700000000    -0.0650729  
C255     C      0.522340000000     0.546680000000     0.701340000000    -0.0282094  
C256     C      0.530600000000     0.559450000000     0.615760000000    -0.0650001  
C257     C      0.535650000000     0.544290000000     0.669730000000     0.0187091  
C258     C      0.524890000000     0.561450000000     0.647840000000     0.0186748  
C259     C      0.419100000000     0.454470000000     0.824720000000    -0.0282266  
C260     C      0.449330000000     0.437210000000     0.951460000000    -0.0280811  
C261     C      0.468830000000     0.407820000000     0.913020000000    -0.0281103  
C262     C      0.446790000000     0.422470000000     0.897950000000     0.0186984  
C263     C      0.435950000000     0.439540000000     0.919860000000     0.0186235  
C264     C      0.419530000000     0.460170000000     0.910840000000    -0.0650224  
C265     C      0.401760000000     0.485830000000     0.862990000000    -0.0281927  
C266     C      0.441130000000     0.424520000000     0.865870000000    -0.0650385  
C267     C      0.413650000000     0.462020000000     0.878770000000     0.0187074  
C268     C      0.423860000000     0.444370000000     0.856910000000     0.0186976  
C269     C      0.475850000000     0.809900000000     0.834030000000    -0.028671   
C270     C      0.486140000000     0.680800000000     0.821920000000    -0.0277591  
C271     C      0.458210000000     0.694420000000     0.777800000000    -0.0279184  
C272     C      0.473120000000     0.724870000000     0.800750000000     0.0188136  
C273     C      0.489090000000     0.717160000000     0.825940000000     0.0183053  
C274     C      0.501650000000     0.740010000000     0.852300000000    -0.0647797  
C275     C      0.504200000000     0.796880000000     0.878100000000    -0.0283016  
C276     C      0.468760000000     0.755730000000     0.800560000000    -0.0652561  
C277     C      0.497850000000     0.771250000000     0.851880000000     0.0184005  
C278     C      0.481780000000     0.778830000000     0.826690000000     0.0188788  
C279     C      0.167900000000     0.502330000000     0.675600000000    -0.0286085  
C280     C      0.299820000000     0.494890000000     0.691800000000    -0.0278138  
C281     C      0.282210000000     0.518950000000     0.736170000000    -0.0279011  
C282     C      0.252940000000     0.505210000000     0.711780000000     0.0187606  
C283     C      0.262910000000     0.491410000000     0.686470000000     0.0183825  
C284     C      0.241510000000     0.480170000000     0.659070000000    -0.0648468  
C285     C      0.184820000000     0.477590000000     0.631370000000    -0.0283424  
C286     C      0.221170000000     0.508690000000     0.711030000000    -0.0652397  
C287     C      0.209350000000     0.483050000000     0.658530000000     0.0184894  
C288     C      0.199530000000     0.497030000000     0.683810000000     0.0188291  
Cd1      Cd     0.419930000000     0.558740000000     0.259550000000     0.506577   
Cd2      Cd     0.114180000000     0.537570000000     0.081160000000     0.506752   
Cd3      Cd     0.441380000000     0.864780000000     0.427940000000     0.506713   
Cd4      Cd     0.856800000000     0.445590000000     0.331190000000     0.506747   
Cd5      Cd     0.551610000000     0.425750000000     0.509640000000     0.506569   
Cd6      Cd     0.529230000000     0.119130000000     0.177920000000     0.506722   
Cd7      Cd     0.419770000000     0.558070000000     0.759790000000     0.506565   
Cd8      Cd     0.114460000000     0.537360000000     0.580890000000     0.506726   
Cd9      Cd     0.441310000000     0.864420000000     0.927890000000     0.506699   
Cd10     Cd     0.856970000000     0.446140000000     0.830970000000     0.506746   
Cd11     Cd     0.552390000000     0.426540000000     0.009750000000     0.506642   
Cd12     Cd     0.529400000000     0.119390000000     0.678050000000     0.506683   
H1       H      0.497940000000     0.280050000000     0.504940000000     0.0513538  
H2       H      0.458910000000     0.301550000000     0.070320000000     0.051264   
H3       H      0.459560000000     0.251500000000     0.122720000000     0.0502823  
H4       H      0.517570000000     0.223750000000     0.031890000000     0.050332   
H5       H      0.477370000000     0.150320000000     0.068850000000     0.0500236  
H6       H      0.479890000000     0.201920000000     0.150160000000     0.055479   
H7       H      0.542870000000     0.300420000000     0.523620000000     0.0541015  
H8       H      0.501790000000     0.322610000000     0.092220000000     0.053965   
H9       H      0.436700000000     0.169120000000     0.131840000000     0.0505777  
H10      H      0.524720000000     0.181340000000     0.080590000000     0.0556325  
H11      H      0.699660000000     0.480270000000     0.508260000000     0.0512221  
H12      H      0.674160000000     0.516120000000     0.442950000000     0.0512159  
H13      H      0.721590000000     0.512600000000     0.389010000000     0.050289   
H14      H      0.756700000000     0.461780000000     0.480340000000     0.0502113  
H15      H      0.828330000000     0.499240000000     0.439860000000     0.0501047  
H16      H      0.770520000000     0.491410000000     0.360480000000     0.0553209  
H17      H      0.678490000000     0.434920000000     0.491450000000     0.0539599  
H18      H      0.651870000000     0.472450000000     0.423090000000     0.0540095  
H19      H      0.804440000000     0.535320000000     0.376360000000     0.0506823  
H20      H      0.796500000000     0.451920000000     0.430120000000     0.0554308  
H21      H      0.790880000000     0.322670000000     0.269540000000     0.0533637  
H22      H      0.735890000000     0.370060000000     0.272560000000     0.0543847  
H23      H      0.660770000000     0.311680000000     0.256110000000     0.050554   
H24      H      0.732810000000     0.245420000000     0.253450000000     0.0501867  
H25      H      0.676150000000     0.208940000000     0.201660000000     0.051325   
H26      H      0.603300000000     0.237020000000     0.238950000000     0.0543644  
H27      H      0.769460000000     0.300420000000     0.305990000000     0.0512797  
H28      H      0.715770000000     0.346230000000     0.308770000000     0.0518361  
H29      H      0.626130000000     0.258560000000     0.202700000000     0.0518585  
H30      H      0.654970000000     0.186280000000     0.238030000000     0.0533406  
H31      H      0.445370000000     0.993590000000     0.401400000000     0.050496   
H32      H      0.374450000000     0.924530000000     0.356130000000     0.0511389  
H33      H      0.391780000000     0.956460000000     0.288280000000     0.0502157  
H34      H      0.493000000000     0.054140000000     0.353160000000     0.0501704  
H35      H      0.482670000000     0.097400000000     0.299490000000     0.0505269  
H36      H      0.437780000000     0.008730000000     0.241480000000     0.054601   
H37      H      0.482110000000     0.989100000000     0.383150000000     0.0552425  
H38      H      0.405420000000     0.914370000000     0.334240000000     0.0548827  
H39      H      0.410890000000     0.029450000000     0.253870000000     0.0512682  
H40      H      0.515040000000     0.081740000000     0.290990000000     0.0549728  
H41      H      0.565030000000     0.069290000000     0.084250000000     0.0548638  
H42      H      0.488040000000     0.994740000000     0.133030000000     0.0552738  
H43      H      0.477340000000     0.929950000000     0.603190000000     0.0501658  
H44      H      0.578630000000     0.027050000000     0.038390000000     0.0501913  
H45      H      0.532700000000     0.975260000000     0.491530000000     0.0545594  
H46      H      0.487630000000     0.886620000000     0.549570000000     0.0505239  
H47      H      0.595830000000     0.058970000000     0.106230000000     0.0511497  
H48      H      0.524590000000     0.990040000000     0.151400000000     0.0505143  
H49      H      0.455340000000     0.902340000000     0.541000000000     0.0549586  
H50      H      0.559540000000     0.954490000000     0.503940000000     0.0512404  
H51      H      0.907520000000     0.411410000000     0.425090000000     0.0550006  
H52      H      0.983130000000     0.486160000000     0.375240000000     0.0553292  
H53      H      0.049070000000     0.497680000000     0.405600000000     0.0501867  
H54      H      0.950280000000     0.399060000000     0.471570000000     0.05019    
H55      H      0.003100000000     0.445510000000     0.517890000000     0.0546506  
H56      H      0.093050000000     0.488790000000     0.459980000000     0.0505366  
H57      H      0.917830000000     0.380520000000     0.403750000000     0.0510583  
H58      H      0.987560000000     0.449480000000     0.357740000000     0.0505139  
H59      H      0.077040000000     0.520810000000     0.467560000000     0.0549814  
H60      H      0.024320000000     0.418900000000     0.506340000000     0.0511865  
H61      H      0.946860000000     0.564060000000     0.256640000000     0.0512002  
H62      H      0.878070000000     0.494140000000     0.210330000000     0.0505511  
H63      H      0.922000000000     0.485320000000     0.155840000000     0.0501627  
H64      H      0.020870000000     0.583960000000     0.221740000000     0.0501852  
H65      H      0.053170000000     0.602530000000     0.153900000000     0.0510758  
H66      H      0.987920000000     0.496890000000     0.125360000000     0.0553374  
H67      H      0.968140000000     0.537470000000     0.268090000000     0.0546388  
H68      H      0.894170000000     0.462170000000     0.217820000000     0.0549762  
H69      H      0.983400000000     0.533560000000     0.107950000000     0.0505091  
H70      H      0.063600000000     0.571680000000     0.175150000000     0.0550285  
H71      H      0.315600000000     0.797050000000     0.487940000000     0.0533348  
H72      H      0.367630000000     0.746650000000     0.488770000000     0.0543223  
H73      H      0.310360000000     0.671870000000     0.505810000000     0.0505144  
H74      H      0.237870000000     0.737680000000     0.503300000000     0.0502344  
H75      H      0.201390000000     0.682590000000     0.555770000000     0.0513543  
H76      H      0.235290000000     0.613250000000     0.522230000000     0.0543835  
H77      H      0.294530000000     0.774430000000     0.451530000000     0.0513324  
H78      H      0.344900000000     0.725150000000     0.452470000000     0.0518254  
H79      H      0.255140000000     0.637200000000     0.058710000000     0.0518539  
H80      H      0.180010000000     0.660310000000     0.519330000000     0.0534358  
H81      H      0.574990000000     0.554420000000     0.061800000000     0.0507748  
H82      H      0.600300000000     0.509090000000     0.117250000000     0.0504394  
H83      H      0.559000000000     0.509690000000     0.177480000000     0.0501508  
H84      H      0.520630000000     0.571900000000     0.098250000000     0.0501889  
H85      H      0.517580000000     0.607180000000     0.160930000000     0.050367   
H86      H      0.505880000000     0.520130000000     0.211820000000     0.055093   
H87      H      0.526720000000     0.518990000000     0.060750000000     0.0554264  
H88      H      0.553920000000     0.470290000000     0.120780000000     0.0553765  
H89      H      0.546400000000     0.564880000000     0.216750000000     0.050806   
H90      H      0.475120000000     0.565460000000     0.151640000000     0.0551929  
H91      H      0.496640000000     0.419360000000     0.401690000000     0.0551866  
H92      H      0.466180000000     0.464980000000     0.461830000000     0.0550903  
H93      H      0.413310000000     0.475770000000     0.427460000000     0.0501349  
H94      H      0.451300000000     0.413190000000     0.348270000000     0.050164   
H95      H      0.445540000000     0.466320000000     0.310730000000     0.0553833  
H96      H      0.372180000000     0.476570000000     0.367240000000     0.0504601  
H97      H      0.454060000000     0.377760000000     0.410960000000     0.0503755  
H98      H      0.425520000000     0.420330000000     0.466760000000     0.0508103  
H99      H      0.418620000000     0.515270000000     0.370700000000     0.0553582  
H100     H      0.397240000000     0.430980000000     0.311790000000     0.0507445  
H101     H      0.473120000000     0.704320000000     0.254890000000     0.0513936  
H102     H      0.514240000000     0.684190000000     0.319780000000     0.0511037  
H103     H      0.512630000000     0.733630000000     0.372440000000     0.0502829  
H104     H      0.454730000000     0.761360000000     0.281520000000     0.0502712  
H105     H      0.493830000000     0.834450000000     0.318950000000     0.0500223  
H106     H      0.491330000000     0.782420000000     0.400020000000     0.055404   
H107     H      0.428210000000     0.683910000000     0.273610000000     0.0541134  
H108     H      0.471280000000     0.662830000000     0.341570000000     0.0540118  
H109     H      0.534570000000     0.815680000000     0.382070000000     0.0505933  
H110     H      0.446540000000     0.802900000000     0.330500000000     0.0555655  
H111     H      0.271810000000     0.503590000000     0.258130000000     0.0512782  
H112     H      0.297640000000     0.468090000000     0.192770000000     0.0512073  
H113     H      0.250030000000     0.471340000000     0.138850000000     0.0502792  
H114     H      0.214460000000     0.521670000000     0.230250000000     0.0502602  
H115     H      0.142840000000     0.483900000000     0.189770000000     0.0501017  
H116     H      0.200800000000     0.492160000000     0.110370000000     0.055371   
H117     H      0.292750000000     0.548940000000     0.241340000000     0.0540115  
H118     H      0.319710000000     0.511780000000     0.172950000000     0.0539978  
H119     H      0.167050000000     0.448170000000     0.126230000000     0.0507088  
H120     H      0.174460000000     0.531280000000     0.180070000000     0.0554648  
H121     H      0.500310000000     0.281430000000     0.005520000000     0.0518615  
H122     H      0.456930000000     0.300310000000     0.569820000000     0.0511358  
H123     H      0.458510000000     0.250880000000     0.622520000000     0.0502726  
H124     H      0.516280000000     0.222980000000     0.531600000000     0.0502627  
H125     H      0.477160000000     0.149930000000     0.569080000000     0.0500603  
H126     H      0.479760000000     0.202050000000     0.650110000000     0.0554109  
H127     H      0.545370000000     0.301840000000     0.025470000000     0.0543609  
H128     H      0.499900000000     0.321630000000     0.591600000000     0.0540601  
H129     H      0.436480000000     0.168820000000     0.632200000000     0.0506169  
H130     H      0.524460000000     0.181450000000     0.580610000000     0.0555742  
H131     H      0.700670000000     0.482380000000     0.007850000000     0.0513226  
H132     H      0.674250000000     0.516910000000     0.942210000000     0.0511763  
H133     H      0.721460000000     0.512960000000     0.888260000000     0.0502726  
H134     H      0.757840000000     0.463950000000     0.980080000000     0.0502054  
H135     H      0.829110000000     0.501150000000     0.939130000000     0.0500778  
H136     H      0.770470000000     0.491770000000     0.859910000000     0.0553393  
H137     H      0.679680000000     0.436800000000     0.991550000000     0.0540076  
H138     H      0.652090000000     0.472970000000     0.922800000000     0.0540264  
H139     H      0.804340000000     0.535990000000     0.875290000000     0.0506527  
H140     H      0.797410000000     0.453630000000     0.929940000000     0.0554051  
H141     H      0.790980000000     0.323230000000     0.769440000000     0.0534258  
H142     H      0.735680000000     0.370300000000     0.773000000000     0.0543724  
H143     H      0.660610000000     0.311780000000     0.756670000000     0.0505287  
H144     H      0.733080000000     0.245980000000     0.753280000000     0.0501729  
H145     H      0.676280000000     0.209540000000     0.701590000000     0.0513224  
H146     H      0.603260000000     0.237090000000     0.739400000000     0.0543225  
H147     H      0.769780000000     0.300870000000     0.805910000000     0.0513136  
H148     H      0.715820000000     0.346340000000     0.809220000000     0.0517935  
H149     H      0.625930000000     0.258840000000     0.703160000000     0.0518391  
H150     H      0.655260000000     0.186680000000     0.737940000000     0.0533246  
H151     H      0.445720000000     0.993380000000     0.901380000000     0.0505267  
H152     H      0.374690000000     0.924430000000     0.856070000000     0.0511342  
H153     H      0.391990000000     0.956480000000     0.788270000000     0.0502007  
H154     H      0.493340000000     0.053970000000     0.853190000000     0.0501662  
H155     H      0.483010000000     0.097370000000     0.799650000000     0.0505396  
H156     H      0.438000000000     0.008830000000     0.741500000000     0.0546077  
H157     H      0.482380000000     0.988830000000     0.883050000000     0.0552525  
H158     H      0.405620000000     0.914260000000     0.834130000000     0.054837   
H159     H      0.411140000000     0.029540000000     0.753990000000     0.0512706  
H160     H      0.515330000000     0.081690000000     0.791040000000     0.0549702  
H161     H      0.565170000000     0.069690000000     0.584300000000     0.0548811  
H162     H      0.488370000000     0.995060000000     0.633180000000     0.0552623  
H163     H      0.476980000000     0.929590000000     0.103120000000     0.0502008  
H164     H      0.578750000000     0.027510000000     0.538340000000     0.0501985  
H165     H      0.532640000000     0.974810000000     0.991520000000     0.0544936  
H166     H      0.487320000000     0.886200000000     0.049590000000     0.0505615  
H167     H      0.596070000000     0.059420000000     0.606180000000     0.0511414  
H168     H      0.525030000000     0.990420000000     0.651420000000     0.0505121  
H169     H      0.455090000000     0.901980000000     0.040910000000     0.0550137  
H170     H      0.559390000000     0.954000000000     0.004060000000     0.0512474  
H171     H      0.907330000000     0.412030000000     0.925190000000     0.0549965  
H172     H      0.983150000000     0.486550000000     0.875350000000     0.0553173  
H173     H      0.048980000000     0.497880000000     0.905820000000     0.050185   
H174     H      0.949900000000     0.399530000000     0.971780000000     0.0501622  
H175     H      0.002760000000     0.445900000000     0.018120000000     0.0546779  
H176     H      0.092760000000     0.488850000000     0.960290000000     0.0505466  
H177     H      0.917530000000     0.380990000000     0.903960000000     0.0510593  
H178     H      0.987480000000     0.449780000000     0.857940000000     0.0505333  
H179     H      0.076920000000     0.521010000000     0.967800000000     0.0549887  
H180     H      0.023830000000     0.419140000000     0.006640000000     0.0512233  
H181     H      0.947080000000     0.564260000000     0.756120000000     0.0511743  
H182     H      0.878290000000     0.494150000000     0.709940000000     0.050557   
H183     H      0.922230000000     0.485100000000     0.655590000000     0.0501633  
H184     H      0.021080000000     0.584020000000     0.721290000000     0.0502003  
H185     H      0.053380000000     0.602350000000     0.653450000000     0.0510505  
H186     H      0.988180000000     0.496590000000     0.625190000000     0.0553272  
H187     H      0.968350000000     0.537710000000     0.767720000000     0.0546163  
H188     H      0.894380000000     0.462210000000     0.717610000000     0.0549763  
H189     H      0.983600000000     0.533150000000     0.607620000000     0.0505128  
H190     H      0.063820000000     0.571570000000     0.674830000000     0.0549824  
H191     H      0.315490000000     0.796960000000     0.987790000000     0.0533441  
H192     H      0.367410000000     0.746450000000     0.988810000000     0.0543455  
H193     H      0.310090000000     0.671770000000     0.006020000000     0.0505573  
H194     H      0.237740000000     0.737700000000     0.003240000000     0.050248   
H195     H      0.201230000000     0.682770000000     0.055840000000     0.0512952  
H196     H      0.235040000000     0.613270000000     0.022530000000     0.0544284  
H197     H      0.294380000000     0.774240000000     0.951420000000     0.051319   
H198     H      0.344630000000     0.724860000000     0.952560000000     0.0518493  
H199     H      0.255400000000     0.637080000000     0.558450000000     0.0518271  
H200     H      0.179820000000     0.660420000000     0.019420000000     0.0533987  
H201     H      0.574730000000     0.553600000000     0.562060000000     0.050756   
H202     H      0.599600000000     0.507790000000     0.617390000000     0.05046    
H203     H      0.558350000000     0.508440000000     0.677630000000     0.0501663  
H204     H      0.520610000000     0.571350000000     0.598570000000     0.0501312  
H205     H      0.517700000000     0.606540000000     0.661340000000     0.0503501  
H206     H      0.505420000000     0.519120000000     0.712020000000     0.0551142  
H207     H      0.526400000000     0.518350000000     0.560940000000     0.0554221  
H208     H      0.553130000000     0.469140000000     0.620820000000     0.0553871  
H209     H      0.546080000000     0.563750000000     0.717040000000     0.0508118  
H210     H      0.475130000000     0.564990000000     0.651950000000     0.0552043  
H211     H      0.496650000000     0.419090000000     0.902020000000     0.0551975  
H212     H      0.466170000000     0.464780000000     0.962140000000     0.0550867  
H213     H      0.413200000000     0.475350000000     0.927780000000     0.0501485  
H214     H      0.451180000000     0.412690000000     0.848670000000     0.0501417  
H215     H      0.445290000000     0.465670000000     0.811070000000     0.0554124  
H216     H      0.371950000000     0.475980000000     0.867550000000     0.050424   
H217     H      0.454150000000     0.377480000000     0.911450000000     0.0503158  
H218     H      0.425620000000     0.420070000000     0.967170000000     0.0507555  
H219     H      0.418380000000     0.514710000000     0.870980000000     0.0553444  
H220     H      0.397000000000     0.430330000000     0.812180000000     0.0507399  
H221     H      0.472950000000     0.703640000000     0.755050000000     0.0513664  
H222     H      0.514070000000     0.683570000000     0.820000000000     0.0511024  
H223     H      0.512430000000     0.733050000000     0.872600000000     0.0502841  
H224     H      0.454550000000     0.760700000000     0.781620000000     0.0502577  
H225     H      0.493650000000     0.833830000000     0.818980000000     0.0500252  
H226     H      0.491140000000     0.781890000000     0.900110000000     0.0553867  
H227     H      0.428040000000     0.683230000000     0.773770000000     0.0540909  
H228     H      0.471100000000     0.662220000000     0.841770000000     0.0540142  
H229     H      0.534390000000     0.815120000000     0.882150000000     0.0505863  
H230     H      0.446360000000     0.802300000000     0.830540000000     0.0555495  
H231     H      0.271610000000     0.502930000000     0.758130000000     0.0512482  
H232     H      0.297590000000     0.467540000000     0.692800000000     0.0512199  
H233     H      0.250220000000     0.471020000000     0.638780000000     0.0502997  
H234     H      0.214440000000     0.521200000000     0.730150000000     0.050233   
H235     H      0.142960000000     0.483630000000     0.689500000000     0.0501053  
H236     H      0.201160000000     0.492030000000     0.610220000000     0.0553372  
H237     H      0.292660000000     0.548330000000     0.741440000000     0.0539817  
H238     H      0.319780000000     0.511270000000     0.673050000000     0.0540129  
H239     H      0.167330000000     0.447990000000     0.625960000000     0.0506865  
H240     H      0.174660000000     0.531030000000     0.679890000000     0.055423   
N1       N      0.483660000000     0.165770000000     0.116800000000    -0.150923   
N2       N      0.507480000000     0.317610000000     0.042990000000    -0.151238   
N3       N      0.809730000000     0.490470000000     0.392630000000    -0.151065   
N4       N      0.660300000000     0.470180000000     0.472260000000    -0.151408   
N5       N      0.626740000000     0.209590000000     0.213750000000    -0.151395   
N6       N      0.766180000000     0.348230000000     0.295740000000    -0.151421   
N7       N      0.469260000000     0.063500000000     0.259190000000    -0.150738   
N8       N      0.427190000000     0.943300000000     0.377370000000    -0.150437   
N9       N      0.501150000000     0.920500000000     0.509250000000    -0.150752   
N10      N      0.543070000000     0.040390000000     0.127360000000    -0.150379   
N11      N      0.058620000000     0.476380000000     0.500160000000    -0.150815   
N12      N      0.936690000000     0.432130000000     0.381780000000    -0.150424   
N13      N      0.034340000000     0.550950000000     0.131880000000    -0.150426   
N14      N      0.912590000000     0.506570000000     0.250440000000    -0.150853   
N15      N      0.204890000000     0.634900000000     0.545490000000    -0.15142    
N16      N      0.344040000000     0.773980000000     0.463620000000    -0.151398   
N17      N      0.500460000000     0.565250000000     0.195250000000    -0.150721   
N18      N      0.564280000000     0.502880000000     0.079490000000    -0.150498   
N19      N      0.408090000000     0.482580000000     0.329450000000    -0.150549   
N20      N      0.471340000000     0.419700000000     0.445280000000    -0.150764   
N21      N      0.487470000000     0.818660000000     0.366830000000    -0.151067   
N22      N      0.465750000000     0.667960000000     0.292320000000    -0.15125    
N23      N      0.161460000000     0.492840000000     0.142540000000    -0.151047   
N24      N      0.311230000000     0.513930000000     0.222120000000    -0.151407   
N25      N      0.483530000000     0.165750000000     0.616940000000    -0.150988   
N26      N      0.505400000000     0.316460000000     0.542340000000    -0.151225   
N27      N      0.810080000000     0.491550000000     0.892020000000    -0.151093   
N28      N      0.660940000000     0.471450000000     0.971970000000    -0.151419   
N29      N      0.626800000000     0.209930000000     0.713920000000    -0.151423   
N30      N      0.766260000000     0.348590000000     0.795880000000    -0.151372   
N31      N      0.469520000000     0.063560000000     0.759290000000    -0.150703   
N32      N      0.427420000000     0.943100000000     0.877280000000    -0.150433   
N33      N      0.500980000000     0.920070000000     0.009250000000    -0.150683   
N34      N      0.543350000000     0.040770000000     0.627420000000    -0.150413   
N35      N      0.058310000000     0.476600000000     0.000430000000    -0.150772   
N36      N      0.936590000000     0.432590000000     0.881890000000    -0.150431   
N37      N      0.034560000000     0.550690000000     0.631570000000    -0.150402   
N38      N      0.912800000000     0.506750000000     0.750080000000    -0.15089    
N39      N      0.204650000000     0.635020000000     0.045660000000    -0.151395   
N40      N      0.343870000000     0.773760000000     0.963570000000    -0.151396   
N41      N      0.500300000000     0.564460000000     0.695550000000    -0.150708   
N42      N      0.563720000000     0.501920000000     0.579620000000    -0.150523   
N43      N      0.407860000000     0.481950000000     0.829770000000    -0.150516   
N44      N      0.471470000000     0.419560000000     0.945650000000    -0.150709   
N45      N      0.487310000000     0.818100000000     0.866870000000    -0.15099    
N46      N      0.465590000000     0.667310000000     0.792510000000    -0.151272   
N47      N      0.161730000000     0.492640000000     0.642310000000    -0.151035   
N48      N      0.311150000000     0.513320000000     0.722200000000    -0.151416   
O1       O      0.457020000000     0.609940000000     0.295930000000    -0.248665   
O2       O      0.418480000000     0.503370000000     0.278990000000    -0.245398   
O3       O      0.453150000000     0.575600000000     0.208880000000    -0.246487   
O4       O      0.370710000000     0.524150000000     0.220470000000    -0.249704   
O5       O      0.354900000000     0.545190000000     0.259810000000    -0.250796   
O6       O      0.472770000000     0.551960000000     0.243370000000    -0.245642   
O7       O      0.432130000000     0.622280000000     0.257110000000    -0.25004    
O8       O      0.405330000000     0.532940000000     0.313000000000    -0.245628   
O9       O      0.066100000000     0.482270000000     0.053710000000    -0.243753   
O10      O      0.144300000000     0.602140000000     0.062650000000    -0.24692    
O11      O      0.142350000000     0.499290000000     0.093800000000    -0.248551   
O12      O      0.051170000000     0.524460000000     0.093350000000    -0.248662   
O13      O      0.094700000000     0.568150000000     0.120100000000    -0.243761   
O14      O      0.130180000000     0.523630000000     0.132900000000    -0.251905   
O15      O      0.105130000000     0.526700000000     0.024720000000    -0.251842   
O16      O      0.178300000000     0.576890000000     0.064920000000    -0.251427   
O17      O      0.496810000000     0.912430000000     0.455960000000    -0.243099   
O18      O      0.375430000000     0.833120000000     0.445380000000    -0.246457   
O19      O      0.482040000000     0.839060000000     0.415220000000    -0.248538   
O20      O      0.454700000000     0.926860000000     0.415430000000    -0.248848   
O21      O      0.409730000000     0.883770000000     0.389360000000    -0.243418   
O22      O      0.454610000000     0.847870000000     0.376370000000    -0.252436   
O23      O      0.450970000000     0.874210000000     0.484440000000    -0.251839   
O24      O      0.403490000000     0.801780000000     0.445420000000    -0.251469   
O25      O      0.828820000000     0.484010000000     0.343890000000    -0.248637   
O26      O      0.876320000000     0.414990000000     0.370090000000    -0.243785   
O27      O      0.904810000000     0.500920000000     0.303720000000    -0.24368    
O28      O      0.792670000000     0.406390000000     0.314950000000    -0.251449   
O29      O      0.826540000000     0.381000000000     0.312720000000    -0.24694    
O30      O      0.865880000000     0.456400000000     0.274740000000    -0.251833   
O31      O      0.840810000000     0.459490000000     0.382950000000    -0.252093   
O32      O      0.919830000000     0.458650000000     0.343300000000    -0.248693   
O33      O      0.514330000000     0.374560000000     0.545970000000    -0.248609   
O34      O      0.553260000000     0.481200000000     0.529150000000    -0.245391   
O35      O      0.518430000000     0.409050000000     0.458950000000    -0.246586   
O36      O      0.600920000000     0.460260000000     0.470600000000    -0.249584   
O37      O      0.616540000000     0.439010000000     0.509910000000    -0.25085    
O38      O      0.498980000000     0.432850000000     0.493420000000    -0.245719   
O39      O      0.539160000000     0.362130000000     0.507160000000    -0.25007    
O40      O      0.566300000000     0.451480000000     0.563110000000    -0.245522   
O41      O      0.473720000000     0.071520000000     0.205900000000    -0.24306    
O42      O      0.595150000000     0.150500000000     0.195410000000    -0.246569   
O43      O      0.488800000000     0.145100000000     0.165170000000    -0.248443   
O44      O      0.515620000000     0.056960000000     0.165380000000    -0.248719   
O45      O      0.560770000000     0.099970000000     0.139380000000    -0.243356   
O46      O      0.516250000000     0.136260000000     0.126350000000    -0.252307   
O47      O      0.519500000000     0.109770000000     0.234410000000    -0.251838   
O48      O      0.567330000000     0.182050000000     0.195490000000    -0.251624   
O49      O      0.456870000000     0.609300000000     0.796160000000    -0.248727   
O50      O      0.418270000000     0.502700000000     0.779300000000    -0.245315   
O51      O      0.453140000000     0.575020000000     0.709200000000    -0.24659    
O52      O      0.370630000000     0.523530000000     0.720640000000    -0.249583   
O53      O      0.354730000000     0.544490000000     0.759980000000    -0.250872   
O54      O      0.472500000000     0.551090000000     0.743630000000    -0.245654   
O55      O      0.431970000000     0.621600000000     0.757330000000    -0.250159   
O56      O      0.405130000000     0.532320000000     0.813270000000    -0.245581   
O57      O      0.066450000000     0.482020000000     0.553430000000    -0.243833   
O58      O      0.144540000000     0.601950000000     0.562470000000    -0.246906   
O59      O      0.142710000000     0.499150000000     0.593550000000    -0.248495   
O60      O      0.051420000000     0.524150000000     0.593100000000    -0.248511   
O61      O      0.094940000000     0.567940000000     0.619790000000    -0.243689   
O62      O      0.130420000000     0.523400000000     0.632650000000    -0.25198    
O63      O      0.105370000000     0.526540000000     0.524450000000    -0.251896   
O64      O      0.178570000000     0.576730000000     0.564630000000    -0.251486   
O65      O      0.496740000000     0.912000000000     0.955970000000    -0.243205   
O66      O      0.375340000000     0.832860000000     0.945250000000    -0.24658    
O67      O      0.481920000000     0.838620000000     0.915220000000    -0.24859    
O68      O      0.454830000000     0.926560000000     0.915350000000    -0.248771   
O69      O      0.409800000000     0.883530000000     0.889280000000    -0.243423   
O70      O      0.454490000000     0.847380000000     0.876340000000    -0.252372   
O71      O      0.450800000000     0.873830000000     0.984390000000    -0.251849   
O72      O      0.403330000000     0.801460000000     0.945410000000    -0.251499   
O73      O      0.828800000000     0.484480000000     0.843320000000    -0.248532   
O74      O      0.876280000000     0.415580000000     0.870070000000    -0.243785   
O75      O      0.905020000000     0.501320000000     0.803360000000    -0.243914   
O76      O      0.792720000000     0.406750000000     0.815080000000    -0.251437   
O77      O      0.826740000000     0.381530000000     0.812560000000    -0.24682    
O78      O      0.866050000000     0.456710000000     0.774500000000    -0.251901   
O79      O      0.841340000000     0.460690000000     0.882620000000    -0.251943   
O80      O      0.919920000000     0.459090000000     0.843250000000    -0.248635   
O81      O      0.515550000000     0.375410000000     0.046260000000    -0.248676   
O82      O      0.553820000000     0.481960000000     0.029070000000    -0.245303   
O83      O      0.518860000000     0.409310000000     0.959230000000    -0.246743   
O84      O      0.601350000000     0.460930000000     0.970400000000    -0.249591   
O85      O      0.617530000000     0.440490000000     0.009920000000    -0.250781   
O86      O      0.499400000000     0.433130000000     0.993670000000    -0.24589    
O87      O      0.540680000000     0.363170000000     0.007560000000    -0.249926   
O88      O      0.567090000000     0.452510000000     0.063140000000    -0.245359   
O89      O      0.473910000000     0.071710000000     0.706010000000    -0.243022   
O90      O      0.595370000000     0.150910000000     0.695400000000    -0.246472   
O91      O      0.488870000000     0.145270000000     0.665330000000    -0.248455   
O92      O      0.515920000000     0.057270000000     0.665510000000    -0.248705   
O93      O      0.560960000000     0.100320000000     0.639450000000    -0.243382   
O94      O      0.516290000000     0.136430000000     0.626480000000    -0.252372   
O95      O      0.519740000000     0.109880000000     0.734530000000    -0.251805   
O96      O      0.567340000000     0.182270000000     0.695780000000    -0.251536   


