data_structure

_audit_creation_method RASPA-1.0
_audit_creation_date 2023-5-23
_audit_author_name 'Poobodin Mano'

_cell_length_a    68.2136
_cell_length_b    23.8565
_cell_length_c    68.9468
_cell_angle_alpha 90.002
_cell_angle_beta  90.0047
_cell_angle_gamma 89.9991
_cell_volume      112200

_symmetry_cell_setting          triclinic
_symmetry_space_group_name_Hall 'P 1'
_symmetry_space_group_name_H-M  'P 1'
_symmetry_Int_Tables_number     1

_symmetry_equiv_pos_as_xyz 'x,y,z'

loop_
_atom_site_label
_atom_site_type_symbol
_atom_site_fract_x
_atom_site_fract_y
_atom_site_fract_z
_atom_site_charge
C1       C      0.561880000000     0.353650000000     0.939190000000     0.341989   
C2       C      0.551170000000     0.163180000000     0.932530000000     0.343255   
C3       C      0.573870000000     0.217790000000     0.991810000000     0.34522    
C4       C      0.510340000000     0.269560000000     0.974210000000     0.249699   
C5       C      0.714710000000     0.004740000000     0.108290000000     0.333862   
C6       C      0.684570000000     0.835370000000     0.098440000000     0.338975   
C7       C      0.666230000000     0.007170000000     0.062680000000     0.342729   
C8       C      0.723990000000     0.897970000000     0.050200000000     0.25677    
C9       C      0.563370000000     0.660090000000     0.852090000000     0.34291    
C10      C      0.557820000000     0.851110000000     0.847120000000     0.340582   
C11      C      0.589350000000     0.781920000000     0.798260000000     0.342759   
C12      C      0.523560000000     0.717140000000     0.803610000000     0.258896   
C13      C      0.721190000000     0.848380000000     0.665700000000     0.341449   
C14      C      0.714550000000     0.044370000000     0.667420000000     0.344041   
C15      C      0.693430000000     0.917800000000     0.719680000000     0.345758   
C16      C      0.760140000000     0.963170000000     0.707680000000     0.257524   
C17      C      0.536110000000     0.715440000000     0.419440000000     0.343291   
C18      C      0.516850000000     0.521250000000     0.428430000000     0.340138   
C19      C      0.561650000000     0.594530000000     0.466550000000     0.346261   
C20      C      0.494530000000     0.664400000000     0.470670000000     0.260292   
C21      C      0.715190000000     0.546740000000     0.576120000000     0.341779   
C22      C      0.708230000000     0.355290000000     0.581620000000     0.343752   
C23      C      0.676050000000     0.464500000000     0.531080000000     0.345897   
C24      C      0.743530000000     0.423500000000     0.528410000000     0.261912   
C25      C      0.527080000000     0.212720000000     0.345020000000     0.335294   
C26      C      0.548320000000     0.029160000000     0.336760000000     0.337304   
C27      C      0.505500000000     0.095780000000     0.294300000000     0.252587   
C28      C      0.569860000000     0.184840000000     0.294110000000     0.345462   
C29      C      0.688680000000     0.515780000000     0.178650000000     0.341586   
C30      C      0.710480000000     0.325890000000     0.184540000000     0.341482   
C31      C      0.734850000000     0.469400000000     0.226330000000     0.261221   
C32      C      0.669780000000     0.388350000000     0.228860000000     0.345247   
C33      C      0.223660000000     0.991420000000     0.560350000000     0.341615   
C34      C      0.218380000000     0.799370000000     0.567270000000     0.34267    
C35      C      0.185560000000     0.917920000000     0.516040000000     0.343005   
C36      C      0.249330000000     0.856890000000     0.511590000000     0.260352   
C37      C      0.057380000000     0.250570000000     0.413510000000     0.342725   
C38      C      0.032720000000     0.060080000000     0.423600000000     0.339968   
C39      C      0.080450000000     0.119950000000     0.459580000000     0.345042   
C40      C      0.016090000000     0.209140000000     0.465450000000     0.26068    
C41      C      0.030510000000     0.541510000000     0.898210000000     0.341371   
C42      C      0.039530000000     0.737840000000     0.896440000000     0.34422    
C43      C      0.993000000000     0.662860000000     0.939430000000     0.260369   
C44      C      0.061010000000     0.627900000000     0.949330000000     0.345206   
C45      C      0.191540000000     0.579490000000     0.091450000000     0.338425   
C46      C      0.172590000000     0.395340000000     0.096260000000     0.337807   
C47      C      0.156090000000     0.508180000000     0.041190000000     0.346395   
C48      C      0.222920000000     0.438410000000     0.054280000000     0.253567   
C49      C      0.184660000000     0.089170000000     0.178280000000     0.341473   
C50      C      0.204870000000     0.899770000000     0.172080000000     0.341392   
C51      C      0.240710000000     0.028050000000     0.210130000000     0.259594   
C52      C      0.175370000000     0.953700000000     0.226930000000     0.343959   
C53      C      0.035630000000     0.746590000000     0.343990000000     0.335592   
C54      C      0.062290000000     0.570850000000     0.333360000000     0.338024   
C55      C      0.020390000000     0.635580000000     0.288660000000     0.255932   
C56      C      0.080880000000     0.738220000000     0.294710000000     0.344877   
C57      C      0.072170000000     0.042030000000     0.813240000000     0.342047   
C58      C      0.059540000000     0.230630000000     0.818410000000     0.339914   
C59      C      0.113690000000     0.189880000000     0.781440000000     0.344192   
C60      C      0.053430000000     0.135490000000     0.757500000000     0.262288   
C61      C      0.233600000000     0.309060000000     0.642060000000     0.336947   
C62      C      0.225280000000     0.496270000000     0.655430000000     0.343873   
C63      C      0.213340000000     0.347160000000     0.704320000000     0.346295   
C64      C      0.276160000000     0.398740000000     0.686650000000     0.257823   
C65      C      0.978360000000     0.704790000000     0.829860000000     0.339741   
C66      C      0.951360000000     0.880520000000     0.835450000000     0.336301   
C67      C      0.002920000000     0.861130000000     0.790880000000     0.25387    
C68      C      0.941530000000     0.758410000000     0.781620000000     0.342626   
C69      C      0.817720000000     0.587950000000     0.656690000000     0.339389   
C70      C      0.832490000000     0.394930000000     0.661450000000     0.342345   
C71      C      0.850070000000     0.540440000000     0.710520000000     0.344669   
C72      C      0.785770000000     0.463310000000     0.700380000000     0.255818   
C73      C      0.947590000000     0.670050000000     0.387890000000     0.341208   
C74      C      0.960540000000     0.867770000000     0.379430000000     0.345841   
C75      C      0.929500000000     0.807650000000     0.434320000000     0.343995   
C76      C      0.997370000000     0.756880000000     0.420210000000     0.251615   
C77      C      0.820910000000     0.086490000000     0.576830000000     0.342955   
C78      C      0.808240000000     0.898040000000     0.571060000000     0.341409   
C79      C      0.772530000000     0.035870000000     0.532250000000     0.260747   
C80      C      0.836240000000     0.972390000000     0.519120000000     0.345843   
C81      C      0.940030000000     0.192130000000     0.915270000000     0.340479   
C82      C      0.963430000000     0.385710000000     0.909470000000     0.343876   
C83      C      0.916930000000     0.338520000000     0.954730000000     0.343241   
C84      C      0.984580000000     0.262090000000     0.956270000000     0.259082   
C85      C      0.765840000000     0.451610000000     0.059050000000     0.340389   
C86      C      0.782730000000     0.640050000000     0.062080000000     0.338538   
C87      C      0.807390000000     0.512700000000     0.015000000000     0.344757   
C88      C      0.740130000000     0.588950000000     0.013480000000     0.262657   
C89      C      0.803080000000     0.940790000000     0.147390000000     0.340548   
C90      C      0.787180000000     0.138970000000     0.140340000000     0.345379   
C91      C      0.758360000000     0.026190000000     0.185850000000     0.25438    
C92      C      0.828280000000     0.079680000000     0.188760000000     0.343151   
C93      C      0.963130000000     0.371990000000     0.300530000000     0.338781   
C94      C      0.977150000000     0.183270000000     0.297960000000     0.340435   
C95      C      0.937220000000     0.245830000000     0.252530000000     0.344166   
C96      C      0.004670000000     0.318490000000     0.252090000000     0.262014   
C97      C      0.465580000000     0.230130000000     0.864500000000     0.343219   
C98      C      0.482910000000     0.033940000000     0.871140000000     0.342668   
C99      C      0.451280000000     0.098550000000     0.817040000000     0.343566   
C100     C      0.518060000000     0.153680000000     0.830290000000     0.258612   
C101     C      0.332610000000     0.825020000000     0.679530000000     0.344138   
C102     C      0.322210000000     0.012000000000     0.680760000000     0.340205   
C103     C      0.288330000000     0.888250000000     0.725680000000     0.25937    
C104     C      0.353340000000     0.947800000000     0.734100000000     0.345607   
C105     C      0.469790000000     0.719910000000     0.954520000000     0.338679   
C106     C      0.459100000000     0.531760000000     0.951870000000     0.341157   
C107     C      0.492540000000     0.586100000000     0.004090000000     0.264474   
C108     C      0.426650000000     0.662550000000     0.997760000000     0.340399   
C109     C      0.295440000000     0.010670000000     0.085760000000     0.338977   
C110     C      0.264810000000     0.830820000000     0.081380000000     0.339838   
C111     C      0.254540000000     0.973120000000     0.035050000000     0.256322   
C112     C      0.317080000000     0.867190000000     0.044490000000     0.343887   
C113     C      0.440100000000     0.126210000000     0.390930000000     0.342709   
C114     C      0.451790000000     0.320560000000     0.383180000000     0.345473   
C115     C      0.428060000000     0.256690000000     0.441340000000     0.344217   
C116     C      0.493730000000     0.209320000000     0.420760000000     0.250839   
C117     C      0.329740000000     0.516450000000     0.594300000000     0.344277   
C118     C      0.318380000000     0.321940000000     0.594380000000     0.342093   
C119     C      0.277840000000     0.452340000000     0.559600000000     0.253913   
C120     C      0.341420000000     0.390920000000     0.538890000000     0.345177   
C121     C      0.283350000000     0.329740000000     0.163410000000     0.342177   
C122     C      0.253560000000     0.515350000000     0.160070000000     0.343137   
C123     C      0.236820000000     0.384190000000     0.206670000000     0.259355   
C124     C      0.301760000000     0.479890000000     0.203150000000     0.343441   
C125     C      0.447720000000     0.636890000000     0.299830000000     0.341203   
C126     C      0.437470000000     0.826120000000     0.302120000000     0.340329   
C127     C      0.472660000000     0.767510000000     0.251170000000     0.261423   
C128     C      0.405670000000     0.696330000000     0.255720000000     0.343906   
C129     C      0.370290000000     0.669530000000     0.255690000000    -0.02815    
C130     C      0.336150000000     0.514490000000     0.202320000000    -0.0283192  
C131     C      0.315260000000     0.540660000000     0.229410000000    -0.0282289  
C132     C      0.334420000000     0.570070000000     0.230600000000     0.019214   
C133     C      0.346280000000     0.555180000000     0.215110000000     0.019636   
C134     C      0.365110000000     0.577670000000     0.212850000000    -0.065239   
C135     C      0.390830000000     0.643610000000     0.228340000000    -0.0287295  
C136     C      0.340810000000     0.608160000000     0.244770000000    -0.0645509  
C137     C      0.371450000000     0.615900000000     0.226940000000     0.0199248  
C138     C      0.359680000000     0.630680000000     0.242500000000     0.0189927  
C139     C      0.453740000000     0.361550000000     0.349890000000    -0.0270219  
C140     C      0.447600000000     0.594530000000     0.332620000000    -0.0267921  
C141     C      0.454630000000     0.535050000000     0.304840000000    -0.0275719  
C142     C      0.453340000000     0.501190000000     0.322880000000     0.0214568  
C143     C      0.449450000000     0.535370000000     0.338690000000     0.0202691  
C144     C      0.447180000000     0.513540000000     0.357370000000    -0.0666898  
C145     C      0.446990000000     0.422250000000     0.377410000000    -0.028282   
C146     C      0.455090000000     0.442920000000     0.324930000000    -0.0658986  
C147     C      0.448880000000     0.455460000000     0.359400000000     0.0178839  
C148     C      0.452690000000     0.420990000000     0.343660000000     0.0146918  
C149     C      0.422210000000     0.077810000000     0.364190000000    -0.0284749  
C150     C      0.446830000000     0.867320000000     0.333780000000    -0.0280827  
C151     C      0.423690000000     0.917870000000     0.313450000000    -0.0281083  
C152     C      0.427190000000     0.948490000000     0.331930000000     0.0171633  
C153     C      0.440210000000     0.919120000000     0.343540000000     0.0173273  
C154     C      0.446290000000     0.939640000000     0.361570000000    -0.0677476  
C155     C      0.444320000000     0.024450000000     0.384720000000    -0.0290455  
C156     C      0.419830000000     0.000890000000     0.337630000000    -0.0670429  
C157     C      0.438810000000     0.991600000000     0.367340000000     0.0188132  
C158     C      0.426060000000     0.021730000000     0.355650000000     0.0174724  
C159     C      0.395930000000     0.252490000000     0.458600000000    -0.0277573  
C160     C      0.373190000000     0.395350000000     0.521180000000    -0.0281492  
C161     C      0.348060000000     0.330520000000     0.510130000000    -0.0278162  
C162     C      0.366260000000     0.323660000000     0.498580000000     0.0189066  
C163     C      0.380610000000     0.360480000000     0.504950000000     0.0198181  
C164     C      0.399320000000     0.361320000000     0.496590000000    -0.0652925  
C165     C      0.421160000000     0.316280000000     0.470130000000    -0.0283336  
C166     C      0.369780000000     0.285950000000     0.483370000000    -0.0647757  
C167     C      0.402860000000     0.323490000000     0.481450000000     0.0200523  
C168     C      0.388480000000     0.286970000000     0.474950000000     0.0190161  
C169     C      0.289370000000     0.226860000000     0.161290000000    -0.0279382  
C170     C      0.305720000000     0.109640000000     0.091160000000    -0.0289458  
C171     C      0.298040000000     0.051010000000     0.118920000000    -0.0286049  
C172     C      0.299930000000     0.110430000000     0.124910000000     0.0198497  
C173     C      0.304210000000     0.143990000000     0.109040000000     0.018006   
C174     C      0.304170000000     0.202590000000     0.110470000000    -0.0668483  
C175     C      0.296320000000     0.285610000000     0.133320000000    -0.0276402  
C176     C      0.295560000000     0.133580000000     0.143080000000    -0.0666178  
C177     C      0.299660000000     0.225730000000     0.128600000000     0.0162908  
C178     C      0.295580000000     0.192170000000     0.144510000000     0.0165548  
C179     C      0.253820000000     0.789980000000     0.112620000000    -0.0277178  
C180     C      0.247070000000     0.556090000000     0.127440000000    -0.0313051  
C181     C      0.245610000000     0.616120000000     0.155860000000    -0.027524   
C182     C      0.245950000000     0.650170000000     0.137920000000     0.0159413  
C183     C      0.246630000000     0.616020000000     0.121660000000     0.0221448  
C184     C      0.248840000000     0.638510000000     0.103000000000    -0.0650759  
C185     C      0.254540000000     0.730770000000     0.083950000000    -0.0285686  
C186     C      0.247690000000     0.708470000000     0.136470000000    -0.063313   
C187     C      0.250270000000     0.696980000000     0.101530000000     0.0190908  
C188     C      0.249770000000     0.730930000000     0.117840000000     0.018519   
C189     C      0.390710000000     0.681210000000     0.997630000000    -0.0307642  
C190     C      0.352260000000     0.839900000000     0.046620000000    -0.0280656  
C191     C      0.332180000000     0.801680000000     0.020660000000    -0.0280179  
C192     C      0.352140000000     0.777010000000     0.020180000000     0.019139   
C193     C      0.363600000000     0.798920000000     0.034960000000     0.0196838  
C194     C      0.383150000000     0.782490000000     0.037480000000    -0.0650215  
C195     C      0.410820000000     0.720270000000     0.023400000000    -0.0284853  
C196     C      0.359580000000     0.737230000000     0.007150000000    -0.0632189  
C197     C      0.390580000000     0.742710000000     0.024450000000     0.0195036  
C198     C      0.379110000000     0.720570000000     0.009730000000     0.0205502  
C199     C      0.338660000000     0.089950000000     0.663240000000    -0.0291982  
C200     C      0.301780000000     0.242860000000     0.611240000000    -0.029802   
C201     C      0.337020000000     0.254130000000     0.614670000000    -0.0279153  
C202     C      0.329970000000     0.206310000000     0.626460000000     0.017661   
C203     C      0.309920000000     0.199330000000     0.624290000000     0.0191296  
C204     C      0.299770000000     0.156820000000     0.634080000000    -0.0642343  
C205     C      0.303690000000     0.075360000000     0.658620000000    -0.0276295  
C206     C      0.340940000000     0.172050000000     0.638870000000    -0.0654389  
C207     C      0.310770000000     0.122290000000     0.646390000000     0.0187424  
C208     C      0.330760000000     0.130100000000     0.648860000000     0.0198013  
C209     C      0.334180000000     0.787450000000     0.645910000000    -0.0268706  
C210     C      0.340160000000     0.556200000000     0.626040000000    -0.0270321  
C211     C      0.334420000000     0.619170000000     0.598940000000    -0.0261292  
C212     C      0.337040000000     0.651260000000     0.617180000000     0.0186971  
C213     C      0.340420000000     0.615330000000     0.632630000000     0.0212411  
C214     C      0.342110000000     0.635330000000     0.651670000000    -0.0651077  
C215     C      0.340540000000     0.724740000000     0.672980000000    -0.0285018  
C216     C      0.335000000000     0.709140000000     0.619940000000    -0.0647778  
C217     C      0.340370000000     0.693320000000     0.654400000000     0.0204164  
C218     C      0.336820000000     0.729170000000     0.638960000000     0.017661   
C219     C      0.468350000000     0.491830000000     0.919980000000    -0.0271755  
C220     C      0.446030000000     0.278740000000     0.890090000000    -0.0284841  
C221     C      0.468360000000     0.332580000000     0.869980000000    -0.0280924  
C222     C      0.461740000000     0.366230000000     0.886770000000     0.0189891  
C223     C      0.449060000000     0.335570000000     0.898370000000     0.0174897  
C224     C      0.442500000000     0.356380000000     0.916280000000    -0.0663492  
C225     C      0.445730000000     0.439730000000     0.940400000000    -0.0279835  
C226     C      0.468560000000     0.419050000000     0.892360000000    -0.067438   
C227     C      0.449300000000     0.409520000000     0.921860000000     0.0168662  
C228     C      0.462060000000     0.439700000000     0.910220000000     0.0160889  
C229     C      0.490060000000     0.988420000000     0.903090000000    -0.0273391  
C230     C      0.467390000000     0.765160000000     0.922310000000    -0.0283086  
C231     C      0.482300000000     0.817180000000     0.948800000000    -0.0270008  
C232     C      0.481820000000     0.851600000000     0.930830000000     0.0165258  
C233     C      0.473620000000     0.821300000000     0.915710000000     0.0202572  
C234     C      0.471480000000     0.844140000000     0.897180000000    -0.0676252  
C235     C      0.476970000000     0.932780000000     0.876550000000    -0.0285016  
C236     C      0.487880000000     0.907370000000     0.928270000000    -0.0657974  
C237     C      0.477970000000     0.899170000000     0.894510000000     0.0204482  
C238     C      0.485700000000     0.930370000000     0.909650000000     0.0183254  
C239     C      0.441700000000     0.041780000000     0.788230000000    -0.0283013  
C240     C      0.363140000000     0.005120000000     0.762640000000    -0.0280546  
C241     C      0.388010000000     0.951650000000     0.745460000000    -0.0278911  
C242     C      0.397100000000     0.987020000000     0.760720000000     0.0195353  
C243     C      0.382900000000     0.017460000000     0.770520000000     0.0196388  
C244     C      0.387810000000     0.054660000000     0.785470000000    -0.064974   
C245     C      0.416750000000     0.094950000000     0.805410000000    -0.0279584  
C246     C      0.417030000000     0.992150000000     0.765330000000    -0.0649074  
C247     C      0.407740000000     0.059780000000     0.790080000000     0.0194154  
C248     C      0.421960000000     0.029410000000     0.780280000000     0.0197577  
C249     C      0.864220000000     0.095310000000     0.191810000000    -0.0281797  
C250     C      0.901260000000     0.228680000000     0.250020000000    -0.0278667  
C251     C      0.922760000000     0.195020000000     0.224430000000    -0.0283508  
C252     C      0.902370000000     0.175760000000     0.221120000000     0.0197753  
C253     C      0.890090000000     0.195020000000     0.235680000000     0.0192409  
C254     C      0.870060000000     0.181850000000     0.235870000000    -0.0647136  
C255     C      0.842590000000     0.129450000000     0.217220000000    -0.0283667  
C256     C      0.895350000000     0.142100000000     0.205980000000    -0.0650703  
C257     C      0.863020000000     0.148250000000     0.220710000000     0.0196856  
C258     C      0.875340000000     0.128840000000     0.206190000000     0.0195487  
C259     C      0.763670000000     0.407920000000     0.091610000000    -0.0279429  
C260     C      0.781410000000     0.178850000000     0.107360000000    -0.0270639  
C261     C      0.781350000000     0.240660000000     0.135390000000    -0.0286616  
C262     C      0.775990000000     0.271900000000     0.117620000000     0.0168082  
C263     C      0.776330000000     0.236940000000     0.101560000000     0.0153023  
C264     C      0.772630000000     0.257450000000     0.082870000000    -0.0642941  
C265     C      0.765380000000     0.347820000000     0.063210000000    -0.0285327  
C266     C      0.771410000000     0.328850000000     0.116000000000    -0.0679322  
C267     C      0.768300000000     0.314690000000     0.081210000000     0.0219113  
C268     C      0.767470000000     0.349180000000     0.097370000000     0.01919    
C269     C      0.815860000000     0.886290000000     0.119290000000    -0.0287791  
C270     C      0.780520000000     0.681970000000     0.094980000000    -0.0278875  
C271     C      0.800860000000     0.727540000000     0.070700000000    -0.0283573  
C272     C      0.801960000000     0.757870000000     0.089470000000     0.017218   
C273     C      0.790450000000     0.731590000000     0.103320000000     0.0167829  
C274     C      0.788210000000     0.753780000000     0.121980000000    -0.0665137  
C275     C      0.796110000000     0.839210000000     0.143620000000    -0.0282335  
C276     C      0.811710000000     0.808250000000     0.093500000000    -0.0668565  
C277     C      0.798010000000     0.803970000000     0.126030000000     0.0189214  
C278     C      0.809370000000     0.830670000000     0.112150000000     0.0183303  
C279     C      0.822340000000     0.462040000000     0.987090000000    -0.0293743  
C280     C      0.902270000000     0.392320000000     0.982120000000    -0.0286097  
C281     C      0.881210000000     0.359760000000     0.955990000000    -0.0280472  
C282     C      0.869920000000     0.394180000000     0.969990000000     0.0190274  
C283     C      0.881910000000     0.412660000000     0.984910000000     0.0200729  
C284     C      0.874630000000     0.446240000000     0.999960000000    -0.06668    
C285     C      0.843290000000     0.493980000000     0.013390000000    -0.0266293  
C286     C      0.850000000000     0.408410000000     0.969230000000    -0.0651571  
C287     C      0.854690000000     0.460410000000     0.999220000000     0.0181314  
C288     C      0.842730000000     0.442110000000     0.984250000000     0.0197216  
C289     C      0.954230000000     0.568710000000     0.383290000000    -0.0287439  
C290     C      0.945410000000     0.459310000000     0.310310000000    -0.0282423  
C291     C      0.967230000000     0.413550000000     0.333270000000    -0.0280416  
C292     C      0.957670000000     0.462680000000     0.342310000000     0.0171104  
C293     C      0.945350000000     0.489210000000     0.329230000000     0.016901   
C294     C      0.935790000000     0.539400000000     0.334000000000    -0.066599   
C295     C      0.933080000000     0.616640000000     0.360330000000    -0.0286574  
C296     C      0.960900000000     0.484190000000     0.360920000000    -0.0671191  
C297     C      0.939180000000     0.561270000000     0.352580000000     0.0179557  
C298     C      0.951310000000     0.534130000000     0.365700000000     0.0193341  
C299     C      0.961540000000     0.970410000000     0.373970000000    -0.0286766  
C300     C      0.978950000000     0.079570000000     0.302440000000    -0.0281163  
C301     C      0.976870000000     0.140320000000     0.330660000000    -0.027436   
C302     C      0.974150000000     0.081070000000     0.336330000000     0.0197529  
C303     C      0.975420000000     0.046200000000     0.320290000000     0.0217384  
C304     C      0.972570000000     0.988160000000     0.321910000000    -0.0654524  
C305     C      0.964690000000     0.908200000000     0.346240000000    -0.0272406  
C306     C      0.969650000000     0.060270000000     0.354760000000    -0.0674246  
C307     C      0.968150000000     0.967270000000     0.340410000000     0.0150782  
C308     C      0.966570000000     0.002520000000     0.356320000000     0.0174209  
C309     C      0.894840000000     0.820870000000     0.444970000000    -0.027856   
C310     C      0.870530000000     0.962170000000     0.507380000000    -0.0280504  
C311     C      0.844040000000     0.920890000000     0.488630000000    -0.0281568  
C312     C      0.863340000000     0.903660000000     0.480700000000     0.0195659  
C313     C      0.878440000000     0.927120000000     0.491440000000     0.019962   
C314     C      0.898120000000     0.915680000000     0.487220000000    -0.0651243  
C315     C      0.921200000000     0.861580000000     0.464050000000    -0.0284687  
C316     C      0.867110000000     0.867640000000     0.465060000000    -0.0645741  
C317     C      0.901880000000     0.879650000000     0.471620000000     0.0202056  
C318     C      0.886820000000     0.856370000000     0.460790000000     0.0192488  
C319     C      0.798070000000     0.665450000000     0.641980000000    -0.0267432  
C320     C      0.825360000000     0.812600000000     0.582590000000    -0.0293529  
C321     C      0.792150000000     0.830710000000     0.593730000000    -0.0269886  
C322     C      0.800660000000     0.781770000000     0.604010000000     0.0176731  
C323     C      0.819600000000     0.771620000000     0.597640000000     0.0195973  
C324     C      0.831060000000     0.728800000000     0.605610000000    -0.0683592  
C325     C      0.831420000000     0.649010000000     0.630900000000    -0.0290868  
C326     C      0.792080000000     0.749270000000     0.618650000000    -0.0658572  
C327     C      0.822460000000     0.696200000000     0.620160000000     0.0191527  
C328     C      0.803470000000     0.705900000000     0.626500000000     0.0126272  
C329     C      0.841200000000     0.349850000000     0.630120000000    -0.0287955  
C330     C      0.823730000000     0.122950000000     0.610650000000    -0.0264749  
C331     C      0.833850000000     0.181940000000     0.583700000000    -0.0287539  
C332     C      0.835130000000     0.213150000000     0.602250000000     0.0206246  
C333     C      0.829470000000     0.179510000000     0.617670000000     0.0170258  
C334     C      0.828360000000     0.200680000000     0.636630000000    -0.0641987  
C335     C      0.831980000000     0.290980000000     0.657390000000    -0.0278767  
C336     C      0.839760000000     0.269830000000     0.604880000000    -0.0656592  
C337     C      0.833310000000     0.257260000000     0.639300000000     0.0179866  
C338     C      0.838730000000     0.290900000000     0.623810000000     0.0200983  
C339     C      0.926770000000     0.140180000000     0.886780000000    -0.0281386  
C340     C      0.947620000000     0.915380000000     0.869220000000    -0.0282987  
C341     C      0.931840000000     0.966190000000     0.843000000000    -0.0291382  
C342     C      0.931140000000     0.999170000000     0.861250000000     0.0182733  
C343     C      0.940050000000     0.969950000000     0.876230000000     0.0193169  
C344     C      0.943350000000     0.994720000000     0.894350000000    -0.0662813  
C345     C      0.941480000000     0.088100000000     0.913320000000    -0.0281622  
C346     C      0.925270000000     0.055080000000     0.863550000000    -0.0666349  
C347     C      0.937380000000     0.050500000000     0.896680000000     0.0167046  
C348     C      0.928740000000     0.080060000000     0.881620000000     0.0163759  
C349     C      0.975000000000     0.483850000000     0.905000000000    -0.0308164  
C350     C      0.976800000000     0.601050000000     0.832920000000    -0.0256766  
C351     C      0.984940000000     0.657020000000     0.861250000000    -0.0338054  
C352     C      0.981170000000     0.598000000000     0.866820000000     0.0312617  
C353     C      0.976610000000     0.566020000000     0.850660000000     0.0119546  
C354     C      0.971720000000     0.509160000000     0.852260000000    -0.0635428  
C355     C      0.967220000000     0.427610000000     0.876620000000    -0.0246936  
C356     C      0.980970000000     0.575030000000     0.885500000000    -0.0660154  
C357     C      0.971830000000     0.486000000000     0.870930000000     0.0119667  
C358     C      0.976330000000     0.518040000000     0.887100000000     0.027187   
C359     C      0.907090000000     0.735910000000     0.772420000000    -0.0281836  
C360     C      0.884440000000     0.560570000000     0.720600000000    -0.0281707  
C361     C      0.857600000000     0.607810000000     0.737030000000    -0.0283449  
C362     C      0.876700000000     0.631550000000     0.743200000000     0.0190247  
C363     C      0.892010000000     0.605000000000     0.733700000000     0.0188178  
C364     C      0.911510000000     0.621750000000     0.736450000000    -0.0652632  
C365     C      0.933880000000     0.691170000000     0.755100000000    -0.0282523  
C366     C      0.880030000000     0.675620000000     0.756240000000    -0.0654304  
C367     C      0.914840000000     0.666130000000     0.749380000000     0.0189289  
C368     C      0.899540000000     0.692000000000     0.759130000000     0.0190546  
C369     C      0.277940000000     0.591420000000     0.609310000000    -0.0439056  
C370     C      0.226580000000     0.404500000000     0.600500000000    -0.0524265  
C371     C      0.220450000000     0.481530000000     0.578670000000    -0.0433223  
C372     C      0.237170000000     0.494820000000     0.591610000000     0.0170874  
C373     C      0.240700000000     0.450540000000     0.604130000000     0.0376816  
C374     C      0.255820000000     0.452600000000     0.617870000000    -0.0658009  
C375     C      0.283970000000     0.514560000000     0.631230000000    -0.053192   
C376     C      0.248500000000     0.543790000000     0.592130000000    -0.061028   
C377     C      0.267170000000     0.501510000000     0.618370000000     0.0389857  
C378     C      0.263640000000     0.545750000000     0.605860000000     0.0202467  
C379     C      0.993030000000     0.280270000000     0.872040000000    -0.0456511  
C380     C      0.034220000000     0.089100000000     0.843900000000    -0.0463476  
C381     C      0.017040000000     0.142110000000     0.819460000000    -0.0486875  
C382     C      0.013610000000     0.166780000000     0.838900000000     0.0232441  
C383     C      0.023220000000     0.135760000000     0.852960000000     0.0228123  
C384     C      0.022550000000     0.150840000000     0.872590000000    -0.0718242  
C385     C      0.009180000000     0.225250000000     0.896630000000    -0.0440228  
C386     C      0.003000000000     0.215190000000     0.843610000000    -0.0721546  
C387     C      0.011660000000     0.198740000000     0.877340000000     0.0169694  
C388     C      0.002280000000     0.230180000000     0.863240000000     0.0201014  
C389     C      0.146730000000     0.178840000000     0.766250000000    -0.0282813  
C390     C      0.188130000000     0.358880000000     0.730200000000    -0.028096   
C391     C      0.200910000000     0.265860000000     0.723350000000    -0.0280537  
C392     C      0.184640000000     0.262700000000     0.737590000000     0.0197519  
C393     C      0.177420000000     0.315790000000     0.741550000000     0.0199859  
C394     C      0.161130000000     0.323640000000     0.753620000000    -0.0647616  
C395     C      0.134410000000     0.272150000000     0.773360000000    -0.0283359  
C396     C      0.175860000000     0.214470000000     0.745360000000    -0.0644019  
C397     C      0.152540000000     0.275520000000     0.761600000000     0.0197715  
C398     C      0.159630000000     0.222350000000     0.757550000000     0.0198326  
C399     C      0.011400000000     0.541720000000     0.356130000000    -0.0451621  
C400     C      0.967430000000     0.734130000000     0.333350000000    -0.050652   
C401     C      0.965220000000     0.655330000000     0.311570000000    -0.0432627  
C402     C      0.977460000000     0.640760000000     0.328610000000     0.0259505  
C403     C      0.978840000000     0.686150000000     0.341060000000     0.0363436  
C404     C      0.990250000000     0.683920000000     0.357950000000    -0.0651853  
C405     C      0.013660000000     0.620490000000     0.377910000000    -0.0491883  
C406     C      0.987450000000     0.590520000000     0.332290000000    -0.0575444  
C407     C      0.000290000000     0.633740000000     0.361590000000     0.0307936  
C408     C      0.998920000000     0.588390000000     0.349130000000     0.0244239  
C409     C      0.258280000000     0.195750000000     0.081700000000    -0.0444523  
C410     C      0.234210000000     0.023370000000     0.133820000000    -0.0459531  
C411     C      0.241830000000     0.111900000000     0.148930000000    -0.0432907  
C412     C      0.245650000000     0.114790000000     0.127760000000     0.0149402  
C413     C      0.241150000000     0.064040000000     0.119090000000     0.0237228  
C414     C      0.242650000000     0.056460000000     0.098990000000    -0.07108    
C415     C      0.250540000000     0.107240000000     0.066670000000    -0.0500214  
C416     C      0.252010000000     0.160880000000     0.116810000000    -0.0660287  
C417     C      0.248890000000     0.102650000000     0.088050000000     0.0270242  
C418     C      0.253380000000     0.153420000000     0.096700000000     0.0175415  
C419     C      0.115810000000     0.759710000000     0.286690000000    -0.0278892  
C420     C      0.141590000000     0.943780000000     0.240230000000    -0.0282856  
C421     C      0.167550000000     0.883990000000     0.252650000000    -0.0283985  
C422     C      0.148200000000     0.865200000000     0.260010000000     0.0191973  
C423     C      0.133410000000     0.899520000000     0.253000000000     0.0192835  
C424     C      0.113650000000     0.888860000000     0.257140000000    -0.0651978  
C425     C      0.090010000000     0.820990000000     0.274770000000    -0.027683   
C426     C      0.144030000000     0.817920000000     0.271390000000    -0.0649785  
C427     C      0.109510000000     0.841990000000     0.268690000000     0.0187392  
C428     C      0.124250000000     0.807280000000     0.275550000000     0.0189641  
C429     C      0.234470000000     0.363960000000     0.131090000000    -0.0462579  
C430     C      0.198720000000     0.184450000000     0.089530000000    -0.0446065  
C431     C      0.205460000000     0.267110000000     0.070550000000    -0.051392   
C432     C      0.210710000000     0.276810000000     0.091150000000     0.0265616  
C433     C      0.206750000000     0.229430000000     0.102060000000     0.0165685  
C434     C      0.211290000000     0.226850000000     0.121860000000    -0.0661351  
C435     C      0.227850000000     0.281220000000     0.150070000000    -0.0431139  
C436     C      0.219600000000     0.324150000000     0.099350000000    -0.0700784  
C437     C      0.220290000000     0.274070000000     0.130050000000     0.0153111  
C438     C      0.224290000000     0.321370000000     0.119110000000     0.0228751  
C439     C      0.179790000000     0.192070000000     0.175190000000    -0.028779   
C440     C      0.158830000000     0.301350000000     0.104810000000    -0.0282278  
C441     C      0.171680000000     0.361480000000     0.130210000000    -0.0289978  
C442     C      0.168280000000     0.304280000000     0.137730000000     0.021105   
C443     C      0.161030000000     0.269660000000     0.123250000000     0.0175374  
C444     C      0.159310000000     0.211650000000     0.126090000000    -0.0653853  
C445     C      0.167380000000     0.130760000000     0.149860000000    -0.0278411  
C446     C      0.174080000000     0.283090000000     0.155760000000    -0.0674231  
C447     C      0.165150000000     0.190400000000     0.144150000000     0.0156172  
C448     C      0.172290000000     0.225270000000     0.158610000000     0.0181188  
C449     C      0.193510000000     0.624620000000     0.123740000000    -0.0287694  
C450     C      0.204730000000     0.857350000000     0.139000000000    -0.0275691  
C451     C      0.203600000000     0.796840000000     0.167360000000    -0.0282027  
C452     C      0.201390000000     0.763630000000     0.149400000000     0.0181814  
C453     C      0.202230000000     0.797820000000     0.133160000000     0.0161481  
C454     C      0.200520000000     0.775640000000     0.114370000000    -0.0653831  
C455     C      0.195870000000     0.683130000000     0.094960000000    -0.0272554  
C456     C      0.198430000000     0.705840000000     0.147870000000    -0.0670871  
C457     C      0.197800000000     0.717520000000     0.112830000000     0.0185873  
C458     C      0.196620000000     0.683820000000     0.129180000000     0.0199924  
C459     C      0.996200000000     0.028890000000     0.895020000000    -0.0433971  
C460     C      0.979510000000     0.016970000000     0.814060000000    -0.0526709  
C461     C      0.965350000000     0.096380000000     0.830560000000    -0.0449871  
C462     C      0.976200000000     0.060610000000     0.844510000000     0.0180664  
C463     C      0.984210000000     0.014820000000     0.835040000000     0.0275992  
C464     C      0.995480000000     0.974870000000     0.844900000000    -0.0686137  
C465     C      0.010190000000     0.949430000000     0.878440000000    -0.0475499  
C466     C      0.979110000000     0.069320000000     0.864410000000    -0.0652186  
C467     C      0.998320000000     0.983430000000     0.864810000000     0.0203202  
C468     C      0.990370000000     0.029300000000     0.874290000000     0.0177568  
C469     C      0.054770000000     0.271190000000     0.851420000000    -0.0283748  
C470     C      0.027450000000     0.492140000000     0.866530000000    -0.0281292  
C471     C      0.036740000000     0.438990000000     0.895150000000    -0.0291475  
C472     C      0.037570000000     0.403120000000     0.877580000000     0.0199738  
C473     C      0.031750000000     0.433120000000     0.861350000000     0.0163028  
C474     C      0.032100000000     0.409280000000     0.842790000000    -0.0667709  
C475     C      0.042150000000     0.321110000000     0.823360000000    -0.0272178  
C476     C      0.044970000000     0.348470000000     0.876010000000    -0.0649157  
C477     C      0.038970000000     0.354120000000     0.841290000000     0.0159972  
C478     C      0.045670000000     0.325000000000     0.857380000000     0.0179946  
C479     C      0.033570000000     0.794500000000     0.866590000000    -0.0299977  
C480     C      0.079490000000     0.981740000000     0.841870000000    -0.0278617  
C481     C      0.053130000000     0.955060000000     0.820030000000    -0.0297092  
C482     C      0.053610000000     0.917440000000     0.837160000000     0.0190052  
C483     C      0.068630000000     0.932670000000     0.849610000000     0.0154351  
C484     C      0.071980000000     0.903760000000     0.867000000000    -0.0647754  
C485     C      0.059980000000     0.821240000000     0.888390000000    -0.0273899  
C486     C      0.041090000000     0.872420000000     0.841390000000    -0.0708803  
C487     C      0.059510000000     0.858670000000     0.871210000000     0.0157888  
C488     C      0.044470000000     0.843400000000     0.858750000000     0.021734   
C489     C      0.071410000000     0.612800000000     0.983560000000    -0.0277979  
C490     C      0.146330000000     0.531030000000     0.007290000000    -0.025999   
C491     C      0.122160000000     0.539080000000     0.033050000000    -0.0281942  
C492     C      0.113760000000     0.557610000000     0.014250000000     0.0214318  
C493     C      0.127540000000     0.552890000000     0.999570000000     0.0161435  
C494     C      0.123090000000     0.567520000000     0.980380000000    -0.0639355  
C495     C      0.095510000000     0.603860000000     0.957780000000    -0.0275965  
C496     C      0.094780000000     0.577490000000     0.010580000000    -0.0636003  
C497     C      0.104120000000     0.587400000000     0.976710000000     0.0190941  
C498     C      0.090360000000     0.592370000000     0.991400000000     0.0183589  
C499     C      0.081620000000     0.926670000000     0.380590000000    -0.0448411  
C500     C      0.030220000000     0.081010000000     0.343050000000    -0.0462612  
C501     C      0.030910000000     0.988400000000     0.329050000000    -0.04487    
C502     C      0.044480000000     0.991550000000     0.345820000000     0.0182756  
C503     C      0.044180000000     0.044850000000     0.353770000000     0.0223296  
C504     C      0.055740000000     0.058850000000     0.369870000000    -0.0715779  
C505     C      0.081110000000     0.019570000000     0.394380000000    -0.0496419  
C506     C      0.056340000000     0.949030000000     0.353540000000    -0.0670314  
C507     C      0.067540000000     0.016310000000     0.377620000000     0.0272411  
C508     C      0.067820000000     0.962970000000     0.369700000000     0.0193176  
C509     C      0.073200000000     0.521600000000     0.363240000000    -0.0292128  
C510     C      0.057830000000     0.291510000000     0.380180000000    -0.027408   
C511     C      0.069610000000     0.347200000000     0.407300000000    -0.0285154  
C512     C      0.069210000000     0.381170000000     0.389290000000     0.0196566  
C513     C      0.062480000000     0.349510000000     0.373800000000     0.0181243  
C514     C      0.059690000000     0.373370000000     0.355400000000    -0.0649749  
C515     C      0.061480000000     0.466500000000     0.335960000000    -0.0282935  
C516     C      0.073520000000     0.438290000000     0.387270000000    -0.065267   
C517     C      0.064200000000     0.430460000000     0.353330000000     0.0180035  
C518     C      0.070920000000     0.461970000000     0.368860000000     0.0202017  
C519     C      0.035160000000     0.956490000000     0.421810000000    -0.0298914  
C520     C      0.016600000000     0.830730000000     0.354170000000    -0.0278821  
C521     C      0.037490000000     0.783770000000     0.377580000000    -0.028378   
C522     C      0.030400000000     0.837870000000     0.385410000000     0.0255342  
C523     C      0.018590000000     0.865020000000     0.372020000000     0.0223322  
C524     C      0.012070000000     0.920030000000     0.375160000000    -0.0615889  
C525     C      0.014720000000     0.005190000000     0.398420000000    -0.0280678  
C526     C      0.036040000000     0.863650000000     0.402750000000    -0.0648675  
C527     C      0.017570000000     0.945760000000     0.392610000000     0.0206393  
C528     C      0.029200000000     0.918100000000     0.406040000000     0.0236777  
C529     C      0.296630000000     0.059970000000     0.591710000000    -0.0474642  
C530     C      0.373330000000     0.020180000000     0.621620000000    -0.0453286  
C531     C      0.348460000000     0.956110000000     0.632880000000    -0.0495609  
C532     C      0.339750000000     0.998360000000     0.619690000000     0.0248376  
C533     C      0.354050000000     0.034880000000     0.613100000000     0.0178369  
C534     C      0.349690000000     0.077840000000     0.599920000000    -0.067534   
C535     C      0.321670000000     0.122160000000     0.579600000000    -0.0464433  
C536     C      0.320200000000     0.003060000000     0.613680000000    -0.0698981  
C537     C      0.330160000000     0.082260000000     0.593790000000     0.0210501  
C538     C      0.315820000000     0.046180000000     0.600580000000     0.0225985  
C539     C      0.208340000000     0.070830000000     0.578020000000    -0.0279917  
C540     C      0.249000000000     0.243740000000     0.618420000000    -0.02932    
C541     C      0.213500000000     0.246910000000     0.620990000000    -0.0290389  
C542     C      0.219730000000     0.200890000000     0.607930000000     0.0197199  
C543     C      0.239980000000     0.199070000000     0.606450000000     0.0176811  
C544     C      0.249510000000     0.157130000000     0.595790000000    -0.0660024  
C545     C      0.243850000000     0.067390000000     0.575250000000    -0.0271782  
C546     C      0.207860000000     0.160770000000     0.598900000000    -0.0654447  
C547     C      0.237630000000     0.117130000000     0.586640000000     0.0190221  
C548     C      0.217370000000     0.118980000000     0.588190000000     0.0195076  
C549     C      0.206040000000     0.549590000000     0.630910000000    -0.0284422  
C550     C      0.231370000000     0.756090000000     0.597490000000    -0.027822   
C551     C      0.204870000000     0.709560000000     0.580270000000    -0.0280446  
C552     C      0.210440000000     0.677350000000     0.597880000000     0.0172721  
C553     C      0.225550000000     0.703970000000     0.607660000000     0.0175382  
C554     C      0.233760000000     0.681180000000     0.624540000000    -0.0677086  
C555     C      0.232820000000     0.595860000000     0.647710000000    -0.0289127  
C556     C      0.202660000000     0.626410000000     0.604490000000    -0.066581   
C557     C      0.225960000000     0.630360000000     0.631160000000     0.0188217  
C558     C      0.210780000000     0.603810000000     0.621460000000     0.0176487  
C559     C      0.171090000000     0.966490000000     0.487440000000    -0.0285119  
C560     C      0.094740000000     0.064310000000     0.486580000000    -0.0285083  
C561     C      0.115340000000     0.088440000000     0.459050000000    -0.0275794  
C562     C      0.125810000000     0.049850000000     0.472410000000     0.0187681  
C563     C      0.113980000000     0.035730000000     0.488000000000     0.0198366  
C564     C      0.120400000000     0.998880000000     0.502490000000    -0.0653002  
C565     C      0.149950000000     0.939720000000     0.514240000000    -0.0284998  
C566     C      0.144900000000     0.028650000000     0.470640000000    -0.0646859  
C567     C      0.139400000000     0.977180000000     0.500610000000     0.0196013  
C568     C      0.151380000000     0.992040000000     0.485220000000     0.0191699  
C569     C      0.664470000000     0.164950000000     0.134930000000    -0.0445175  
C570     C      0.717580000000     0.222120000000     0.074180000000    -0.0472703  
C571     C      0.713970000000     0.292360000000     0.099070000000    -0.0445749  
C572     C      0.701460000000     0.243110000000     0.103470000000     0.0172874  
C573     C      0.703500000000     0.202880000000     0.089130000000     0.0230335  
C574     C      0.693020000000     0.152410000000     0.089720000000    -0.075334   
C575     C      0.667580000000     0.095670000000     0.109650000000    -0.0492417  
C576     C      0.688920000000     0.234970000000     0.119330000000    -0.0666466  
C577     C      0.680510000000     0.144230000000     0.105590000000     0.0279651  
C578     C      0.678600000000     0.184200000000     0.120030000000     0.0186736  
C579     C      0.497800000000     0.004820000000     0.360460000000    -0.0436219  
C580     C      0.456650000000     0.199130000000     0.334630000000    -0.0505032  
C581     C      0.451580000000     0.116270000000     0.315250000000    -0.0423211  
C582     C      0.464680000000     0.103540000000     0.331830000000     0.023187   
C583     C      0.467710000000     0.151240000000     0.342880000000     0.0404551  
C584     C      0.480130000000     0.150820000000     0.359080000000    -0.0662283  
C585     C      0.503060000000     0.087880000000     0.379690000000    -0.0517298  
C586     C      0.473870000000     0.052620000000     0.336340000000    -0.0576012  
C587     C      0.489340000000     0.099970000000     0.363560000000     0.0363223  
C588     C      0.486290000000     0.052270000000     0.352530000000     0.0207222  
C589     C      0.605050000000     0.209090000000     0.289180000000    -0.0279173  
C590     C      0.634320000000     0.368870000000     0.234660000000    -0.0276888  
C591     C      0.658660000000     0.329280000000     0.256450000000    -0.028222   
C592     C      0.638920000000     0.306700000000     0.260910000000     0.0194342  
C593     C      0.624990000000     0.329650000000     0.248620000000     0.0187514  
C594     C      0.605190000000     0.314260000000     0.249810000000    -0.0650238  
C595     C      0.580440000000     0.251390000000     0.268310000000    -0.0278943  
C596     C      0.633920000000     0.266300000000     0.274820000000    -0.0652801  
C597     C      0.600150000000     0.274330000000     0.263890000000     0.018699   
C598     C      0.614160000000     0.250620000000     0.275920000000     0.019024   
C599     C      0.684660000000     0.487460000000     0.620180000000    -0.0502667  
C600     C      0.744490000000     0.596440000000     0.664030000000    -0.0450265  
C601     C      0.755420000000     0.517770000000     0.644910000000    -0.045639   
C602     C      0.734100000000     0.526810000000     0.642140000000     0.0222945  
C603     C      0.727860000000     0.572370000000     0.652960000000     0.0196118  
C604     C      0.708250000000     0.589860000000     0.652810000000    -0.0657094  
C605     C      0.673850000000     0.567360000000     0.638770000000    -0.044502   
C606     C      0.721070000000     0.495750000000     0.630670000000    -0.071007   
C607     C      0.695230000000     0.558850000000     0.641310000000     0.0171519  
C608     C      0.701440000000     0.513060000000     0.630600000000     0.0286932  
C609     C      0.564050000000     0.456330000000     0.385140000000    -0.0441177  
C610     C      0.504590000000     0.579780000000     0.345620000000    -0.0458657  
C611     C      0.509470000000     0.485410000000     0.334040000000    -0.0446448  
C612     C      0.523010000000     0.497500000000     0.350350000000     0.0171229  
C613     C      0.520300000000     0.551840000000     0.356890000000     0.0221407  
C614     C      0.531570000000     0.574060000000     0.372060000000    -0.0695541  
C615     C      0.559570000000     0.551270000000     0.396310000000    -0.0482717  
C616     C      0.537080000000     0.462060000000     0.358670000000    -0.067042   
C617     C      0.545620000000     0.538590000000     0.380400000000     0.0292409  
C618     C      0.548250000000     0.484130000000     0.373940000000     0.0181997  
C619     C      0.508170000000     0.297060000000     0.355490000000    -0.0272477  
C620     C      0.523650000000     0.419710000000     0.424700000000    -0.0294755  
C621     C      0.500890000000     0.464430000000     0.402480000000    -0.0281452  
C622     C      0.505960000000     0.407230000000     0.395620000000     0.0210804  
C623     C      0.518970000000     0.381860000000     0.408340000000     0.0219902  
C624     C      0.527770000000     0.330370000000     0.404030000000    -0.0651657  
C625     C      0.531010000000     0.253410000000     0.377920000000    -0.0277042  
C626     C      0.501000000000     0.382150000000     0.377890000000    -0.0621212  
C627     C      0.522690000000     0.305170000000     0.386410000000     0.0258981  
C628     C      0.509630000000     0.330190000000     0.373680000000     0.0213102  
C629     C      0.547880000000     0.812430000000     0.413190000000    -0.0285487  
C630     C      0.546680000000     0.925030000000     0.340130000000    -0.028247   
C631     C      0.557060000000     0.981530000000     0.367590000000    -0.0296628  
C632     C      0.553510000000     0.922860000000     0.373680000000     0.0207992  
C633     C      0.547610000000     0.890460000000     0.358050000000     0.0166728  
C634     C      0.542240000000     0.834060000000     0.360410000000    -0.0647556  
C635     C      0.537730000000     0.754780000000     0.385890000000    -0.0266785  
C636     C      0.554310000000     0.900960000000     0.392510000000    -0.0659357  
C637     C      0.543260000000     0.811920000000     0.379250000000     0.0165479  
C638     C      0.549090000000     0.844590000000     0.394840000000     0.0200298  
C639     C      0.639710000000     0.470810000000     0.528560000000    -0.0279449  
C640     C      0.597840000000     0.580020000000     0.467570000000    -0.0276998  
C641     C      0.577970000000     0.550020000000     0.494940000000    -0.027973   
C642     C      0.598810000000     0.534690000000     0.497990000000     0.0195948  
C643     C      0.610170000000     0.552000000000     0.482430000000     0.0191277  
C644     C      0.630470000000     0.542910000000     0.482010000000    -0.0648694  
C645     C      0.659730000000     0.502230000000     0.501490000000    -0.0281862  
C646     C      0.607080000000     0.506910000000     0.513920000000    -0.0651539  
C647     C      0.638750000000     0.515200000000     0.497970000000     0.0194594  
C648     C      0.627350000000     0.497490000000     0.513450000000     0.0194024  
C649     C      0.795580000000     0.836660000000     0.661760000000    -0.0450661  
C650     C      0.847780000000     0.946760000000     0.609520000000    -0.0501277  
C651     C      0.860670000000     0.863040000000     0.624430000000    -0.044449   
C652     C      0.840290000000     0.873200000000     0.631030000000     0.0172862  
C653     C      0.832870000000     0.921180000000     0.622430000000     0.0284704  
C654     C      0.813870000000     0.940310000000     0.626410000000    -0.0707969  
C655     C      0.782450000000     0.919230000000     0.646320000000    -0.0454617  
C656     C      0.829180000000     0.841660000000     0.644210000000    -0.0656876  
C657     C      0.802760000000     0.908740000000     0.639570000000     0.0223599  
C658     C      0.810220000000     0.860960000000     0.648270000000     0.0196479  
C659     C      0.716180000000     0.147760000000     0.661890000000    -0.0274883  
C660     C      0.700610000000     0.255920000000     0.589590000000    -0.0287066  
C661     C      0.713350000000     0.316840000000     0.614900000000    -0.0263465  
C662     C      0.710740000000     0.258880000000     0.622330000000     0.0170634  
C663     C      0.703570000000     0.224170000000     0.607840000000     0.0207478  
C664     C      0.700670000000     0.166760000000     0.610960000000    -0.0657202  
C665     C      0.704150000000     0.087110000000     0.636180000000    -0.0284766  
C666     C      0.715220000000     0.238090000000     0.640840000000    -0.0642156  
C667     C      0.705140000000     0.146010000000     0.629440000000     0.0202139  
C668     C      0.712110000000     0.180680000000     0.644040000000     0.0178819  
C669     C      0.734940000000     0.612090000000     0.596540000000    -0.0272602  
C670     C      0.702590000000     0.785180000000     0.643810000000    -0.0289403  
C671     C      0.737640000000     0.770580000000     0.647730000000    -0.0263254  
C672     C      0.729450000000     0.730930000000     0.633210000000     0.012665   
C673     C      0.709490000000     0.739610000000     0.630950000000     0.0191808  
C674     C      0.698380000000     0.708270000000     0.617780000000    -0.0683271  
C675     C      0.700030000000     0.628760000000     0.592400000000    -0.0293179  
C676     C      0.739360000000     0.689760000000     0.622490000000    -0.0656827  
C677     C      0.708330000000     0.667660000000     0.606950000000     0.0195783  
C678     C      0.728250000000     0.658400000000     0.609290000000     0.0177615  
C679     C      0.533810000000     0.837800000000     0.910740000000    -0.0435379  
C680     C      0.505000000000     0.613510000000     0.914030000000    -0.0457899  
C681     C      0.519300000000     0.647700000000     0.943740000000    -0.0486198  
C682     C      0.520130000000     0.691580000000     0.928550000000     0.0239265  
C683     C      0.511990000000     0.671880000000     0.911470000000     0.0191902  
C684     C      0.511050000000     0.705360000000     0.894780000000    -0.0718454  
C685     C      0.519730000000     0.803350000000     0.880970000000    -0.0502271  
C686     C      0.527780000000     0.745940000000     0.929980000000    -0.0686482  
C687     C      0.518730000000     0.759670000000     0.896210000000     0.028991   
C688     C      0.526840000000     0.779410000000     0.913300000000     0.01901    
C689     C      0.660200000000     0.929250000000     0.734120000000    -0.0281647  
C690     C      0.623600000000     0.773990000000     0.785790000000    -0.0279086  
C691     C      0.602600000000     0.848840000000     0.773930000000    -0.0282845  
C692     C      0.622630000000     0.854410000000     0.765850000000     0.0196465  
C693     C      0.634600000000     0.811590000000     0.772510000000     0.0190351  
C694     C      0.654260000000     0.807530000000     0.766760000000    -0.064809   
C695     C      0.681090000000     0.853330000000     0.745330000000    -0.0277256  
C696     C      0.629670000000     0.895890000000     0.753250000000    -0.0652802  
C697     C      0.661290000000     0.848920000000     0.754100000000     0.0188712  
C698     C      0.649350000000     0.892050000000     0.747610000000     0.0196629  
C699     C      0.779350000000     0.998010000000     0.095160000000    -0.0507591  
C700     C      0.736850000000     0.802910000000     0.117920000000    -0.0447095  
C701     C      0.736030000000     0.879040000000     0.140910000000    -0.04879    
C702     C      0.748480000000     0.894070000000     0.124060000000     0.0307709  
C703     C      0.749020000000     0.850240000000     0.110910000000     0.0239211  
C704     C      0.759470000000     0.854300000000     0.093470000000    -0.0571056  
C705     C      0.780430000000     0.921480000000     0.072360000000    -0.0438473  
C706     C      0.758350000000     0.944590000000     0.120540000000    -0.0657436  
C707     C      0.769220000000     0.904970000000     0.089880000000     0.0269555  
C708     C      0.768600000000     0.948930000000     0.102980000000     0.0349281  
C709     C      0.733210000000     0.090280000000     0.117910000000    -0.0296304  
C710     C      0.707300000000     0.222520000000     0.181680000000    -0.0289299  
C711     C      0.726360000000     0.272950000000     0.157540000000    -0.0265319  
C712     C      0.725680000000     0.212130000000     0.152920000000     0.0174199  
C713     C      0.714840000000     0.183530000000     0.166750000000     0.0212977  
C714     C      0.710660000000     0.126370000000     0.164850000000    -0.0653465  
C715     C      0.713730000000     0.041360000000     0.141930000000    -0.0303168  
C716     C      0.732890000000     0.184850000000     0.136370000000    -0.0623812  
C717     C      0.718160000000     0.099030000000     0.148510000000     0.0267887  
C718     C      0.729080000000     0.127340000000     0.134690000000     0.0240336  
C719     C      0.676830000000     0.613150000000     0.172870000000    -0.0285446  
C720     C      0.684190000000     0.731090000000     0.101200000000    -0.028185   
C721     C      0.673940000000     0.787590000000     0.128710000000    -0.0288914  
C722     C      0.675560000000     0.727780000000     0.134330000000     0.0200272  
C723     C      0.681390000000     0.695480000000     0.118650000000     0.0187193  
C724     C      0.685170000000     0.637980000000     0.120620000000    -0.0650656  
C725     C      0.686810000000     0.556190000000     0.145360000000    -0.0280764  
C726     C      0.673280000000     0.704510000000     0.152860000000    -0.0649     
C727     C      0.682650000000     0.614540000000     0.139110000000     0.0190685  
C728     C      0.676900000000     0.646960000000     0.154800000000     0.0195803  
C729     C      0.515160000000     0.368790000000     0.911750000000    -0.0454874  
C730     C      0.476990000000     0.157150000000     0.918900000000    -0.0504061  
C731     C      0.466580000000     0.227210000000     0.941910000000    -0.0432868  
C732     C      0.481510000000     0.250850000000     0.928590000000     0.0243805  
C733     C      0.487400000000     0.210700000000     0.915300000000     0.0371328  
C734     C      0.501490000000     0.222460000000     0.901100000000    -0.0623895  
C735     C      0.525270000000     0.299080000000     0.888500000000    -0.048685   
C736     C      0.489540000000     0.304940000000     0.928580000000    -0.0588628  
C737     C      0.509610000000     0.276410000000     0.901170000000     0.0336919  
C738     C      0.503790000000     0.316470000000     0.914510000000     0.025266   
C739     C      0.571530000000     0.908770000000     0.873840000000    -0.0254686  
C740     C      0.538490000000     0.110890000000     0.903720000000    -0.0279637  
C741     C      0.567080000000     0.075830000000     0.920940000000    -0.0268302  
C742     C      0.562070000000     0.038540000000     0.904520000000     0.0152856  
C743     C      0.545780000000     0.058390000000     0.894660000000     0.0238333  
C744     C      0.538200000000     0.029980000000     0.878510000000    -0.0698357  
C745     C      0.542700000000     0.942360000000     0.856640000000    -0.0285557  
C746     C      0.571720000000     0.989460000000     0.898820000000    -0.0642851  
C747     C      0.547800000000     0.980660000000     0.872850000000     0.0255696  
C748     C      0.564160000000     0.961190000000     0.882690000000     0.0166295  
C749     C      0.576010000000     0.398870000000     0.909770000000    -0.0280687  
C750     C      0.557410000000     0.620730000000     0.884950000000    -0.0273908  
C751     C      0.575030000000     0.564410000000     0.861310000000    -0.0281435  
C752     C      0.572350000000     0.532850000000     0.879700000000     0.0189022  
C753     C      0.562480000000     0.565270000000     0.893230000000     0.0175232  
C754     C      0.557750000000     0.544460000000     0.911650000000    -0.0666783  
C755     C      0.559320000000     0.456570000000     0.933650000000    -0.0283364  
C756     C      0.577780000000     0.477370000000     0.883780000000    -0.0648073  
C757     C      0.563410000000     0.489300000000     0.915810000000     0.0190568  
C758     C      0.573050000000     0.456520000000     0.902220000000     0.0196755  
C759     C      0.580430000000     0.148340000000     0.017880000000    -0.0281941  
C760     C      0.656690000000     0.096130000000     0.046450000000    -0.0276324  
C761     C      0.631330000000     0.028630000000     0.054680000000    -0.0282699  
C762     C      0.622820000000     0.077330000000     0.044220000000     0.0190713  
C763     C      0.637320000000     0.115660000000     0.039460000000     0.0178345  
C764     C      0.633230000000     0.163360000000     0.028300000000    -0.0644478  
C765     C      0.605920000000     0.214850000000     0.009170000000    -0.0259869  
C766     C      0.603370000000     0.084880000000     0.038200000000    -0.065211   
C767     C      0.613760000000     0.171070000000     0.022370000000     0.0186678  
C768     C      0.599230000000     0.133010000000     0.027270000000     0.019622   
Cd1      Cd     0.549720000000     0.253900000000     0.959840000000     0.505015   
Cd2      Cd     0.696540000000     0.936690000000     0.078960000000     0.501736   
Cd3      Cd     0.558450000000     0.750190000000     0.824570000000     0.505231   
Cd4      Cd     0.722080000000     0.945390000000     0.690490000000     0.506372   
Cd5      Cd     0.526560000000     0.626580000000     0.446280000000     0.502844   
Cd6      Cd     0.710830000000     0.445750000000     0.553960000000     0.505542   
Cd7      Cd     0.538990000000     0.131620000000     0.316430000000     0.502794   
Cd8      Cd     0.701290000000     0.428090000000     0.204750000000     0.505849   
Cd9      Cd     0.219330000000     0.888630000000     0.538960000000     0.507213   
Cd10     Cd     0.046240000000     0.163360000000     0.440420000000     0.504618   
Cd11     Cd     0.030530000000     0.643170000000     0.920960000000     0.502836   
Cd12     Cd     0.185830000000     0.479060000000     0.069230000000     0.502349   
Cd13     Cd     0.201940000000     0.994440000000     0.197570000000     0.50749    
Cd14     Cd     0.050890000000     0.673620000000     0.314340000000     0.503376   
Cd15     Cd     0.075730000000     0.147340000000     0.792800000000     0.505636   
Cd16     Cd     0.236450000000     0.390330000000     0.672630000000     0.502324   
Cd17     Cd     0.969560000000     0.804800000000     0.808390000000     0.501139   
Cd18     Cd     0.822450000000     0.495130000000     0.682910000000     0.505702   
Cd19     Cd     0.958150000000     0.774650000000     0.405770000000     0.503692   
Cd20     Cd     0.809160000000     0.000840000000     0.549600000000     0.505785   
Cd21     Cd     0.950680000000     0.295470000000     0.934180000000     0.506904   
Cd22     Cd     0.773290000000     0.549840000000     0.036060000000     0.506338   
Cd23     Cd     0.794800000000     0.046300000000     0.165870000000     0.503826   
Cd24     Cd     0.971100000000     0.281130000000     0.274350000000     0.506518   
Cd25     Cd     0.479680000000     0.129830000000     0.845970000000     0.502156   
Cd26     Cd     0.324320000000     0.916210000000     0.705730000000     0.506883   
Cd27     Cd     0.461720000000     0.624110000000     0.978490000000     0.505023   
Cd28     Cd     0.282960000000     0.921360000000     0.060610000000     0.503809   
Cd29     Cd     0.453390000000     0.227200000000     0.409480000000     0.503068   
Cd30     Cd     0.317090000000     0.422050000000     0.571320000000     0.506199   
Cd31     Cd     0.269020000000     0.426770000000     0.183860000000     0.507929   
Cd32     Cd     0.440540000000     0.733130000000     0.275810000000     0.50712    
H1       H      0.302900000000     0.570960000000     0.228630000000     0.0552739  
H2       H      0.334780000000     0.530930000000     0.187300000000     0.0541347  
H3       H      0.374400000000     0.565770000000     0.200800000000     0.0519078  
H4       H      0.331630000000     0.619400000000     0.256970000000     0.0519412  
H5       H      0.362910000000     0.711010000000     0.256290000000     0.053168   
H6       H      0.402910000000     0.612320000000     0.228450000000     0.0560255  
H7       H      0.313010000000     0.512860000000     0.242140000000     0.0540705  
H8       H      0.344130000000     0.473900000000     0.201850000000     0.0530431  
H9       H      0.393140000000     0.672840000000     0.216000000000     0.0537837  
H10      H      0.371240000000     0.652260000000     0.270630000000     0.0541861  
H11      H      0.443710000000     0.521040000000     0.293900000000     0.0530037  
H12      H      0.432920000000     0.611620000000     0.336380000000     0.0540135  
H13      H      0.444070000000     0.540330000000     0.369660000000     0.0516644  
H14      H      0.458050000000     0.416070000000     0.312620000000     0.0504591  
H15      H      0.442070000000     0.336110000000     0.342900000000     0.0487304  
H16      H      0.457800000000     0.435660000000     0.388490000000     0.048508   
H17      H      0.469510000000     0.532430000000     0.298360000000     0.0562626  
H18      H      0.459000000000     0.621010000000     0.339590000000     0.0512518  
H19      H      0.432020000000     0.426200000000     0.383640000000     0.0533551  
H20      H      0.468170000000     0.342950000000     0.346270000000     0.0406424  
H21      H      0.428060000000     0.943510000000     0.300710000000     0.05104    
H22      H      0.462940000000     0.867900000000     0.331360000000     0.0499671  
H23      H      0.456700000000     0.916940000000     0.370440000000     0.0485856  
H24      H      0.410170000000     0.024810000000     0.328330000000     0.0496404  
H25      H      0.425890000000     0.112040000000     0.353880000000     0.0522883  
H26      H      0.438430000000     0.004490000000     0.398060000000     0.0528994  
H27      H      0.408020000000     0.905960000000     0.311890000000     0.0547535  
H28      H      0.443030000000     0.829570000000     0.342450000000     0.0543271  
H29      H      0.460480000000     0.028390000000     0.386180000000     0.0526741  
H30      H      0.406570000000     0.081890000000     0.368430000000     0.0524675  
H31      H      0.344040000000     0.290920000000     0.517630000000     0.0529668  
H32      H      0.382240000000     0.389690000000     0.534440000000     0.054043   
H33      H      0.410550000000     0.389920000000     0.501610000000     0.0525326  
H34      H      0.358560000000     0.257310000000     0.478370000000     0.0516293  
H35      H      0.395780000000     0.207170000000     0.462310000000     0.0528331  
H36      H      0.425460000000     0.355940000000     0.462810000000     0.055984   
H37      H      0.335600000000     0.343750000000     0.500810000000     0.0541422  
H38      H      0.373130000000     0.440510000000     0.517230000000     0.0543801  
H39      H      0.433430000000     0.302380000000     0.479580000000     0.0542374  
H40      H      0.387040000000     0.259030000000     0.445270000000     0.054357   
H41      H      0.283560000000     0.033400000000     0.123090000000     0.0543718  
H42      H      0.295650000000     0.124780000000     0.079630000000     0.0533384  
H43      H      0.306620000000     0.228860000000     0.097900000000     0.0485102  
H44      H      0.291500000000     0.107390000000     0.155250000000     0.0513761  
H45      H      0.274460000000     0.215070000000     0.166350000000     0.0472949  
H46      H      0.310080000000     0.310210000000     0.131920000000     0.0529644  
H47      H      0.309760000000     0.025100000000     0.125620000000     0.0534699  
H48      H      0.320950000000     0.110220000000     0.085450000000     0.0531037  
H49      H      0.284990000000     0.304330000000     0.123700000000     0.047704   
H50      H      0.299800000000     0.222470000000     0.173570000000     0.0540843  
H51      H      0.231440000000     0.621370000000     0.163590000000     0.047519   
H52      H      0.233670000000     0.533960000000     0.122410000000     0.0555659  
H53      H      0.250060000000     0.611810000000     0.090370000000     0.0580255  
H54      H      0.248000000000     0.734880000000     0.149240000000     0.0505051  
H55      H      0.241120000000     0.817280000000     0.115910000000     0.0476336  
H56      H      0.267910000000     0.715500000000     0.076390000000     0.055559   
H57      H      0.257750000000     0.627950000000     0.165810000000     0.0546354  
H58      H      0.260130000000     0.534370000000     0.121380000000     0.0560862  
H59      H      0.242020000000     0.729610000000     0.073660000000     0.0516032  
H60      H      0.266840000000     0.806290000000     0.120510000000     0.0548971  
H61      H      0.320820000000     0.768780000000     0.022600000000     0.0553389  
H62      H      0.351350000000     0.826770000000     0.062060000000     0.0539946  
H63      H      0.392170000000     0.800050000000     0.048880000000     0.0519821  
H64      H      0.350670000000     0.720420000000     0.995530000000     0.0503391  
H65      H      0.384710000000     0.637990000000     0.998580000000     0.0533293  
H66      H      0.421740000000     0.754560000000     0.021780000000     0.0555217  
H67      H      0.329010000000     0.825170000000     0.007100000000     0.0547522  
H68      H      0.358980000000     0.882290000000     0.045910000000     0.0534943  
H69      H      0.414450000000     0.695680000000     0.036610000000     0.0538629  
H70      H      0.390840000000     0.694400000000     0.982170000000     0.0542864  
H71      H      0.347700000000     0.240040000000     0.603510000000     0.0474757  
H72      H      0.294480000000     0.224040000000     0.598390000000     0.0489655  
H73      H      0.284140000000     0.151130000000     0.632340000000     0.0469884  
H74      H      0.356550000000     0.178040000000     0.640780000000     0.0488743  
H75      H      0.350400000000     0.063470000000     0.656910000000     0.0523594  
H76      H      0.292450000000     0.089820000000     0.669160000000     0.0554528  
H77      H      0.344070000000     0.286620000000     0.623880000000     0.0548565  
H78      H      0.291100000000     0.269710000000     0.619060000000     0.0550506  
H79      H      0.297310000000     0.041290000000     0.649630000000     0.0496335  
H80      H      0.344710000000     0.112230000000     0.676060000000     0.0535002  
H81      H      0.346520000000     0.628220000000     0.588610000000     0.0522955  
H82      H      0.354800000000     0.536550000000     0.627960000000     0.0521038  
H83      H      0.344250000000     0.607100000000     0.663780000000     0.0522943  
H84      H      0.331740000000     0.737010000000     0.607980000000     0.0495485  
H85      H      0.345740000000     0.815350000000     0.639950000000     0.0477082  
H86      H      0.329330000000     0.708370000000     0.683220000000     0.0555563  
H87      H      0.320260000000     0.629220000000     0.591790000000     0.050287   
H88      H      0.329160000000     0.531080000000     0.634150000000     0.0542036  
H89      H      0.355160000000     0.722400000000     0.680030000000     0.0541524  
H90      H      0.319590000000     0.804350000000     0.641740000000     0.0498798  
H91      H      0.484620000000     0.330270000000     0.869260000000     0.0511787  
H92      H      0.449280000000     0.245190000000     0.900760000000     0.051757   
H93      H      0.433100000000     0.331830000000     0.925640000000     0.048383   
H94      H      0.479040000000     0.441950000000     0.883630000000     0.0484161  
H95      H      0.484490000000     0.492460000000     0.922230000000     0.0481859  
H96      H      0.430000000000     0.450870000000     0.942060000000     0.0541339  
H97      H      0.462790000000     0.350730000000     0.856200000000     0.0522827  
H98      H      0.430660000000     0.273710000000     0.885080000000     0.0519185  
H99      H      0.450320000000     0.414120000000     0.953080000000     0.0503122  
H100     H      0.464100000000     0.529340000000     0.911400000000     0.049466   
H101     H      0.473830000000     0.837310000000     0.960680000000     0.0518944  
H102     H      0.451280000000     0.759820000000     0.920730000000     0.0527553  
H103     H      0.465040000000     0.820340000000     0.885430000000     0.0499033  
H104     H      0.493890000000     0.931600000000     0.940140000000     0.0492415  
H105     H      0.481690000000     0.019850000000     0.911620000000     0.0479464  
H106     H      0.486700000000     0.914990000000     0.865180000000     0.0515302  
H107     H      0.497580000000     0.810280000000     0.953830000000     0.0481919  
H108     H      0.474800000000     0.731430000000     0.914000000000     0.0503645  
H109     H      0.461750000000     0.934730000000     0.870800000000     0.0540562  
H110     H      0.505950000000     0.997840000000     0.904420000000     0.0458389  
H111     H      0.390600000000     0.906410000000     0.748320000000     0.0536312  
H112     H      0.353580000000     0.985990000000     0.773890000000     0.0536428  
H113     H      0.376710000000     0.078360000000     0.793130000000     0.0518497  
H114     H      0.428130000000     0.968400000000     0.757690000000     0.0522862  
H115     H      0.448930000000     0.003150000000     0.793720000000     0.0561721  
H116     H      0.414180000000     0.140210000000     0.802590000000     0.052971   
H117     H      0.393890000000     0.962110000000     0.730860000000     0.054906   
H118     H      0.355950000000     0.043740000000     0.757090000000     0.0551693  
H119     H      0.410800000000     0.084330000000     0.819970000000     0.0545219  
H120     H      0.451270000000     0.061180000000     0.777040000000     0.0543547  
H121     H      0.927830000000     0.222490000000     0.212420000000     0.054292   
H122     H      0.895840000000     0.272590000000     0.250520000000     0.0536175  
H123     H      0.860440000000     0.197020000000     0.247210000000     0.0521306  
H124     H      0.904950000000     0.127080000000     0.194610000000     0.0519659  
H125     H      0.865510000000     0.113460000000     0.177010000000     0.0546156  
H126     H      0.837360000000     0.101980000000     0.229160000000     0.0541124  
H127     H      0.933010000000     0.158990000000     0.225750000000     0.0551757  
H128     H      0.900190000000     0.210300000000     0.264800000000     0.0536843  
H129     H      0.832440000000     0.165710000000     0.215860000000     0.0560929  
H130     H      0.869500000000     0.051270000000     0.191440000000     0.0530123  
H131     H      0.769780000000     0.243490000000     0.146650000000     0.04973    
H132     H      0.769560000000     0.149130000000     0.103410000000     0.0420865  
H133     H      0.773360000000     0.230490000000     0.070260000000     0.0500909  
H134     H      0.771280000000     0.356150000000     0.128550000000     0.0526514  
H135     H      0.749160000000     0.422080000000     0.097070000000     0.0520871  
H136     H      0.777960000000     0.342870000000     0.053100000000     0.0543898  
H137     H      0.795270000000     0.256810000000     0.141630000000     0.0538124  
H138     H      0.795240000000     0.164840000000     0.100360000000     0.0507386  
H139     H      0.751740000000     0.334890000000     0.055640000000     0.0556981  
H140     H      0.775190000000     0.436570000000     0.097270000000     0.0556913  
H141     H      0.815510000000     0.711900000000     0.066190000000     0.0546631  
H142     H      0.784730000000     0.643050000000     0.102800000000     0.0543089  
H143     H      0.778770000000     0.734060000000     0.132600000000     0.0497544  
H144     H      0.820120000000     0.829870000000     0.082500000000     0.0493775  
H145     H      0.832030000000     0.887090000000     0.121200000000     0.0522945  
H146     H      0.780500000000     0.846210000000     0.147540000000     0.0515342  
H147     H      0.794920000000     0.754890000000     0.059050000000     0.0502658  
H148     H      0.764310000000     0.686610000000     0.095590000000     0.0486679  
H149     H      0.803690000000     0.819310000000     0.156110000000     0.052446   
H150     H      0.811630000000     0.920350000000     0.109140000000     0.0527701  
H151     H      0.880750000000     0.378220000000     0.941200000000     0.0537992  
H152     H      0.912760000000     0.427810000000     0.980930000000     0.0554814  
H153     H      0.883960000000     0.460480000000     0.011660000000     0.0534664  
H154     H      0.840640000000     0.393920000000     0.957580000000     0.0515082  
H155     H      0.817740000000     0.490140000000     0.975070000000     0.053844   
H156     H      0.843880000000     0.475040000000     0.028110000000     0.0536127  
H157     H      0.875440000000     0.316240000000     0.955310000000     0.0528298  
H158     H      0.906910000000     0.364880000000     0.994310000000     0.0542375  
H159     H      0.848890000000     0.537650000000     0.014220000000     0.0534332  
H160     H      0.811890000000     0.426380000000     0.987980000000     0.0546691  
H161     H      0.963590000000     0.374330000000     0.341200000000     0.0545829  
H162     H      0.930550000000     0.443520000000     0.306600000000     0.0548055  
H163     H      0.926740000000     0.561270000000     0.323560000000     0.0492726  
H164     H      0.970920000000     0.464150000000     0.370920000000     0.049646   
H165     H      0.947460000000     0.548250000000     0.396120000000     0.0528779  
H166     H      0.936800000000     0.651120000000     0.350140000000     0.0526151  
H167     H      0.983430000000     0.418590000000     0.332970000000     0.0488506  
H168     H      0.950610000000     0.487030000000     0.298420000000     0.0502452  
H169     H      0.917040000000     0.617370000000     0.363090000000     0.0523677  
H170     H      0.970050000000     0.575720000000     0.386280000000     0.0525496  
H171     H      0.990370000000     0.157940000000     0.337300000000     0.0509077  
H172     H      0.993390000000     0.069060000000     0.295940000000     0.0556862  
H173     H      0.973550000000     0.960820000000     0.309420000000     0.0507785  
H174     H      0.968390000000     0.087700000000     0.367200000000     0.0519551  
H175     H      0.972370000000     0.977210000000     0.385720000000     0.049451   
H176     H      0.951510000000     0.890810000000     0.338940000000     0.0500297  
H177     H      0.964130000000     0.166360000000     0.335140000000     0.0549113  
H178     H      0.967300000000     0.072260000000     0.291450000000     0.054002   
H179     H      0.977460000000     0.881390000000     0.342660000000     0.0421764  
H180     H      0.946800000000     0.982390000000     0.379430000000     0.0530072  
H181     H      0.835150000000     0.883890000000     0.492970000000     0.0556428  
H182     H      0.875810000000     0.947330000000     0.521750000000     0.0553791  
H183     H      0.909900000000     0.933770000000     0.495680000000     0.0524677  
H184     H      0.855330000000     0.849250000000     0.456680000000     0.0521156  
H185     H      0.890230000000     0.776480000000     0.446710000000     0.0530072  
H186     H      0.930280000000     0.898160000000     0.459680000000     0.0563378  
H187     H      0.835620000000     0.945690000000     0.477830000000     0.0536854  
H188     H      0.874840000000     0.006760000000     0.505520000000     0.0537341  
H189     H      0.929380000000     0.836950000000     0.475090000000     0.0542391  
H190     H      0.889960000000     0.836000000000     0.430500000000     0.0546356  
H191     H      0.787420000000     0.863930000000     0.603980000000     0.0510296  
H192     H      0.838790000000     0.835950000000     0.586780000000     0.052857   
H193     H      0.845950000000     0.721430000000     0.600790000000     0.0493581  
H194     H      0.777450000000     0.757920000000     0.623810000000     0.0447567  
H195     H      0.794330000000     0.687220000000     0.655740000000     0.046915   
H196     H      0.835640000000     0.614460000000     0.620920000000     0.0544234  
H197     H      0.779310000000     0.817960000000     0.584840000000     0.0526865  
H198     H      0.828060000000     0.791370000000     0.568500000000     0.0529874  
H199     H      0.844630000000     0.662860000000     0.639020000000     0.0501612  
H200     H      0.785410000000     0.639180000000     0.637520000000     0.0496241  
H201     H      0.848530000000     0.177730000000     0.576870000000     0.0538841  
H202     H      0.833440000000     0.090060000000     0.616810000000     0.0450236  
H203     H      0.823440000000     0.174870000000     0.648590000000     0.0500925  
H204     H      0.843480000000     0.296540000000     0.592730000000     0.0525324  
H205     H      0.856600000000     0.363850000000     0.628130000000     0.0530242  
H206     H      0.817210000000     0.287640000000     0.664110000000     0.0531806  
H207     H      0.823830000000     0.203060000000     0.573300000000     0.0563497  
H208     H      0.808310000000     0.112960000000     0.614550000000     0.0499192  
H209     H      0.843140000000     0.277170000000     0.668110000000     0.0528878  
H210     H      0.831380000000     0.378410000000     0.621860000000     0.0551133  
H211     H      0.938840000000     0.990080000000     0.831030000000     0.0532016  
H212     H      0.963580000000     0.910940000000     0.872080000000     0.0526149  
H213     H      0.951070000000     0.972620000000     0.905740000000     0.0505032  
H214     H      0.919210000000     0.078810000000     0.851590000000     0.0482296  
H215     H      0.934620000000     0.167390000000     0.876230000000     0.0490717  
H216     H      0.932570000000     0.076000000000     0.926140000000     0.0529575  
H217     H      0.916850000000     0.953810000000     0.838410000000     0.0528709  
H218     H      0.939780000000     0.880100000000     0.876320000000     0.0525217  
H219     H      0.957240000000     0.087300000000     0.917430000000     0.0480207  
H220     H      0.911110000000     0.152860000000     0.887240000000     0.0522975  
H221     H      0.000400000000     0.668720000000     0.864220000000     0.0701973  
H222     H      0.988450000000     0.586980000000     0.822770000000     0.0498512  
H223     H      0.967970000000     0.484310000000     0.839660000000     0.0473739  
H224     H      0.984170000000     0.600320000000     0.898110000000     0.0705787  
H225     H      0.989450000000     0.481150000000     0.912380000000     0.0630438  
H226     H      0.952250000000     0.415300000000     0.871900000000     0.051108   
H227     H      0.975110000000     0.686340000000     0.869160000000     0.0605693  
H228     H      0.962440000000     0.599530000000     0.825300000000     0.0530019  
H229     H      0.977980000000     0.398010000000     0.870240000000     0.0446598  
H230     H      0.964110000000     0.501590000000     0.915310000000     0.0601208  
H231     H      0.848010000000     0.640640000000     0.730640000000     0.0542051  
H232     H      0.889200000000     0.567630000000     0.705380000000     0.0539757  
H233     H      0.923470000000     0.601380000000     0.728920000000     0.0513039  
H234     H      0.868070000000     0.696130000000     0.763720000000     0.0513563  
H235     H      0.901510000000     0.777970000000     0.768260000000     0.0524288  
H236     H      0.943980000000     0.658960000000     0.761090000000     0.0553721  
H237     H      0.849840000000     0.588240000000     0.749470000000     0.0531505  
H238     H      0.889550000000     0.518510000000     0.725330000000     0.0528132  
H239     H      0.941080000000     0.711760000000     0.742520000000     0.0532255  
H240     H      0.902800000000     0.727270000000     0.787690000000     0.0543844  
H241     H      0.225150000000     0.481470000000     0.563250000000     0.0517234  
H242     H      0.234320000000     0.365580000000     0.596100000000     0.0598092  
H243     H      0.258620000000     0.418050000000     0.627630000000     0.0746773  
H244     H      0.245720000000     0.578430000000     0.582380000000     0.050914   
H245     H      0.287000000000     0.598530000000     0.596180000000     0.0539989  
H246     H      0.279380000000     0.514650000000     0.646670000000     0.0633118  
H247     H      0.208290000000     0.511830000000     0.580820000000     0.0464432  
H248     H      0.217460000000     0.396560000000     0.613540000000     0.0655752  
H249     H      0.296040000000     0.484060000000     0.628970000000     0.0668693  
H250     H      0.270440000000     0.630790000000     0.613560000000     0.0461838  
H251     H      0.024670000000     0.172190000000     0.809840000000     0.0693791  
H252     H      0.050200000000     0.094800000000     0.846160000000     0.0614966  
H253     H      0.030380000000     0.127190000000     0.883520000000     0.0492995  
H254     H      0.995880000000     0.240180000000     0.832560000000     0.0495763  
H255     H      0.999530000000     0.319120000000     0.865940000000     0.0489931  
H256     H      0.001110000000     0.196940000000     0.906610000000     0.0575796  
H257     H      0.003100000000     0.128930000000     0.812600000000     0.0567925  
H258     H      0.029580000000     0.047960000000     0.849770000000     0.0489877  
H259     H      0.023610000000     0.236740000000     0.902950000000     0.0509063  
H260     H      0.976920000000     0.279870000000     0.869750000000     0.0589004  
H261     H      0.197700000000     0.240490000000     0.710200000000     0.0549246  
H262     H      0.178030000000     0.383100000000     0.720720000000     0.0551541  
H263     H      0.155120000000     0.364950000000     0.756240000000     0.051971   
H264     H      0.181070000000     0.172930000000     0.741700000000     0.0526379  
H265     H      0.141030000000     0.149530000000     0.755050000000     0.0564969  
H266     H      0.136670000000     0.291300000000     0.787880000000     0.0523974  
H267     H      0.214860000000     0.250830000000     0.729840000000     0.0544547  
H268     H      0.195960000000     0.388520000000     0.739920000000     0.0541346  
H269     H      0.121990000000     0.293800000000     0.766070000000     0.0557658  
H270     H      0.154720000000     0.154330000000     0.777430000000     0.0532088  
H271     H      0.952150000000     0.627830000000     0.310640000000     0.0464408  
H272     H      0.955440000000     0.745770000000     0.343440000000     0.0696821  
H273     H      0.991430000000     0.719470000000     0.367620000000     0.0694191  
H274     H      0.986580000000     0.555300000000     0.322420000000     0.0539702  
H275     H      0.002580000000     0.503630000000     0.359070000000     0.0457581  
H276     H      0.026460000000     0.649170000000     0.377960000000     0.0614407  
H277     H      0.973860000000     0.652380000000     0.297960000000     0.0581979  
H278     H      0.977070000000     0.770770000000     0.330630000000     0.0592757  
H279     H      0.005800000000     0.622880000000     0.391990000000     0.0563045  
H280     H      0.023020000000     0.532050000000     0.345410000000     0.0570569  
H281     H      0.230400000000     0.142500000000     0.153290000000     0.0479232  
H282     H      0.218990000000     0.009630000000     0.130630000000     0.0613484  
H283     H      0.238830000000     0.017060000000     0.092180000000     0.0637674  
H284     H      0.255300000000     0.200770000000     0.123530000000     0.0498867  
H285     H      0.248010000000     0.231670000000     0.082270000000     0.0491579  
H286     H      0.262040000000     0.078570000000     0.061080000000     0.065861   
H287     H      0.255410000000     0.119460000000     0.157360000000     0.0490165  
H288     H      0.244120000000     0.986510000000     0.134550000000     0.0599155  
H289     H      0.236280000000     0.098090000000     0.059580000000     0.0559951  
H290     H      0.273510000000     0.211050000000     0.083400000000     0.0460242  
H291     H      0.175160000000     0.849880000000     0.244650000000     0.0558637  
H292     H      0.135050000000     0.941930000000     0.225470000000     0.0547954  
H293     H      0.102080000000     0.915200000000     0.251450000000     0.0512578  
H294     H      0.155550000000     0.790440000000     0.276500000000     0.0517589  
H295     H      0.119570000000     0.718850000000     0.279900000000     0.0539803  
H296     H      0.082280000000     0.852240000000     0.283960000000     0.051113   
H297     H      0.177090000000     0.898140000000     0.264760000000     0.0535969  
H298     H      0.138940000000     0.986100000000     0.246420000000     0.0525424  
H299     H      0.080670000000     0.811140000000     0.262010000000     0.0537508  
H300     H      0.121140000000     0.759660000000     0.301920000000     0.0522597  
H301     H      0.218500000000     0.271620000000     0.061040000000     0.0584093  
H302     H      0.208370000000     0.147020000000     0.089700000000     0.0498078  
H303     H      0.208410000000     0.189540000000     0.130300000000     0.0496528  
H304     H      0.223050000000     0.360760000000     0.090740000000     0.0608393  
H305     H      0.249220000000     0.373290000000     0.125100000000     0.0634479  
H306     H      0.215910000000     0.277960000000     0.160900000000     0.0504101  
H307     H      0.193750000000     0.296410000000     0.065860000000     0.0704028  
H308     H      0.183720000000     0.172580000000     0.094130000000     0.0459175  
H309     H      0.239410000000     0.249790000000     0.153280000000     0.0473127  
H310     H      0.225660000000     0.402990000000     0.132070000000     0.0647806  
H311     H      0.187060000000     0.375150000000     0.132650000000     0.0551667  
H312     H      0.166760000000     0.280960000000     0.092640000000     0.0521376  
H313     H      0.154560000000     0.184150000000     0.114520000000     0.0480498  
H314     H      0.180640000000     0.309870000000     0.166660000000     0.053304   
H315     H      0.195470000000     0.201430000000     0.178150000000     0.0494048  
H316     H      0.152870000000     0.109960000000     0.151150000000     0.0526714  
H317     H      0.161680000000     0.391950000000     0.137330000000     0.0539937  
H318     H      0.143110000000     0.305240000000     0.100830000000     0.0523121  
H319     H      0.176440000000     0.107290000000     0.139180000000     0.0488816  
H320     H      0.171130000000     0.200570000000     0.188520000000     0.0545114  
H321     H      0.217060000000     0.784410000000     0.175370000000     0.0500323  
H322     H      0.218580000000     0.875300000000     0.133260000000     0.0465283  
H323     H      0.201330000000     0.802150000000     0.101660000000     0.0521309  
H324     H      0.197620000000     0.679320000000     0.160590000000     0.0500714  
H325     H      0.205260000000     0.597200000000     0.129540000000     0.0522656  
H326     H      0.182810000000     0.695800000000     0.086390000000     0.0530222  
H327     H      0.190720000000     0.791550000000     0.177070000000     0.0540196  
H328     H      0.192300000000     0.883500000000     0.133820000000     0.0523015  
H329     H      0.209070000000     0.686730000000     0.085620000000     0.0507195  
H330     H      0.179200000000     0.609140000000     0.129270000000     0.0545439  
H331     H      0.971630000000     0.139210000000     0.829970000000     0.0464771  
H332     H      0.993110000000     0.019950000000     0.805280000000     0.0597984  
H333     H      0.001910000000     0.939460000000     0.837440000000     0.0543941  
H334     H      0.973120000000     0.105560000000     0.871770000000     0.0516687  
H335     H      0.004720000000     0.066980000000     0.898780000000     0.0457509  
H336     H      0.004270000000     0.906220000000     0.879640000000     0.0527099  
H337     H      0.949620000000     0.098940000000     0.834380000000     0.0458915  
H338     H      0.970890000000     0.979690000000     0.809610000000     0.0691701  
H339     H      0.025750000000     0.948330000000     0.873770000000     0.0492702  
H340     H      0.983200000000     0.025630000000     0.904580000000     0.0466135  
H341     H      0.051190000000     0.441040000000     0.902570000000     0.0544798  
H342     H      0.037320000000     0.521540000000     0.858720000000     0.053249   
H343     H      0.027880000000     0.433070000000     0.830090000000     0.0489166  
H344     H      0.050490000000     0.326090000000     0.888530000000     0.0508624  
H345     H      0.070550000000     0.269930000000     0.855410000000     0.0528819  
H346     H      0.027950000000     0.310010000000     0.816440000000     0.0471553  
H347     H      0.025620000000     0.423050000000     0.905560000000     0.055527   
H348     H      0.012110000000     0.503230000000     0.863020000000     0.0491267  
H349     H      0.051250000000     0.344480000000     0.812710000000     0.0540692  
H350     H      0.047400000000     0.234930000000     0.858260000000     0.0496276  
H351     H      0.038770000000     0.976800000000     0.818820000000     0.0524015  
H352     H      0.078980000000     0.017610000000     0.852150000000     0.0491953  
H353     H      0.083700000000     0.915720000000     0.876750000000     0.0506399  
H354     H      0.029300000000     0.860680000000     0.831700000000     0.0621549  
H355     H      0.017960000000     0.805230000000     0.869360000000     0.0562187  
H356     H      0.074240000000     0.798950000000     0.889520000000     0.0543232  
H357     H      0.055790000000     0.931260000000     0.806430000000     0.0548387  
H358     H      0.095070000000     0.971010000000     0.838970000000     0.0534278  
H359     H      0.057480000000     0.845210000000     0.901990000000     0.0527803  
H360     H      0.034120000000     0.758330000000     0.856440000000     0.0588165  
H361     H      0.114040000000     0.502470000000     0.038940000000     0.0537861  
H362     H      0.150270000000     0.490450000000     0.000400000000     0.0536406  
H363     H      0.133810000000     0.563390000000     0.968880000000     0.0511148  
H364     H      0.083990000000     0.580930000000     0.022030000000     0.0521865  
H365     H      0.059360000000     0.582640000000     0.986570000000     0.055524   
H366     H      0.103220000000     0.640810000000     0.951610000000     0.0529353  
H367     H      0.121820000000     0.573400000000     0.043950000000     0.0539801  
H368     H      0.158480000000     0.561280000000     0.004870000000     0.0549634  
H369     H      0.096250000000     0.568890000000     0.947150000000     0.0543979  
H370     H      0.067470000000     0.654110000000     0.989900000000     0.053361   
H371     H      0.019150000000     0.957140000000     0.331640000000     0.0444441  
H372     H      0.018160000000     0.095000000000     0.352720000000     0.0487782  
H373     H      0.055450000000     0.100470000000     0.376120000000     0.0637944  
H374     H      0.056560000000     0.907320000000     0.347370000000     0.0527437  
H375     H      0.073930000000     0.890080000000     0.386960000000     0.0480979  
H376     H      0.092960000000     0.050420000000     0.391570000000     0.0557073  
H377     H      0.038980000000     0.977930000000     0.315550000000     0.0504905  
H378     H      0.037810000000     0.117820000000     0.336680000000     0.0524122  
H379     H      0.073150000000     0.030900000000     0.407860000000     0.061622   
H380     H      0.093710000000     0.912220000000     0.371050000000     0.0508955  
H381     H      0.060290000000     0.366150000000     0.418780000000     0.0549522  
H382     H      0.042240000000     0.280790000000     0.377260000000     0.0519087  
H383     H      0.053950000000     0.349070000000     0.343420000000     0.0523565  
H384     H      0.078280000000     0.463300000000     0.399500000000     0.0518405  
H385     H      0.064240000000     0.549480000000     0.372650000000     0.0567604  
H386     H      0.071600000000     0.453750000000     0.324140000000     0.0538596  
H387     H      0.084810000000     0.343030000000     0.412920000000     0.0531959  
H388     H      0.067340000000     0.260460000000     0.372710000000     0.0494773  
H389     H      0.046180000000     0.464350000000     0.330450000000     0.0502125  
H390     H      0.088790000000     0.534800000000     0.364200000000     0.0532421  
H391     H      0.031720000000     0.748240000000     0.386270000000     0.0508729  
H392     H      0.001250000000     0.816400000000     0.352340000000     0.0515956  
H393     H      0.003940000000     0.942580000000     0.364210000000     0.0501903  
H394     H      0.045970000000     0.843320000000     0.412770000000     0.0501609  
H395     H      0.028600000000     0.943250000000     0.435830000000     0.0557909  
H396     H      0.019040000000     0.034800000000     0.386790000000     0.0500083  
H397     H      0.053780000000     0.781800000000     0.377530000000     0.0498932  
H398     H      0.021140000000     0.854340000000     0.341020000000     0.0458552  
H399     H      0.999200000000     0.013340000000     0.402270000000     0.0513153  
H400     H      0.051360000000     0.957950000000     0.423430000000     0.0527785  
H401     H      0.346760000000     0.913320000000     0.626800000000     0.0523196  
H402     H      0.384030000000     0.009140000000     0.610100000000     0.0504969  
H403     H      0.360900000000     0.106050000000     0.594610000000     0.048946   
H404     H      0.309020000000     0.974480000000     0.618820000000     0.0532728  
H405     H      0.291060000000     0.024140000000     0.583040000000     0.0528348  
H406     H      0.323740000000     0.166140000000     0.584360000000     0.0520468  
H407     H      0.341720000000     0.958310000000     0.647490000000     0.0676585  
H408     H      0.379050000000     0.055250000000     0.630570000000     0.0475602  
H409     H      0.328330000000     0.116050000000     0.565070000000     0.0522377  
H410     H      0.285820000000     0.071710000000     0.603030000000     0.0436103  
H411     H      0.204560000000     0.230920000000     0.633270000000     0.0545757  
H412     H      0.259260000000     0.226100000000     0.629340000000     0.0489694  
H413     H      0.265320000000     0.155290000000     0.594930000000     0.0503679  
H414     H      0.192070000000     0.161450000000     0.600410000000     0.0515743  
H415     H      0.199660000000     0.044460000000     0.588170000000     0.0536023  
H416     H      0.251940000000     0.079930000000     0.561950000000     0.0557185  
H417     H      0.204860000000     0.278870000000     0.612970000000     0.0503928  
H418     H      0.256980000000     0.274260000000     0.609160000000     0.0506509  
H419     H      0.253310000000     0.039180000000     0.584000000000     0.0493217  
H420     H      0.198590000000     0.085160000000     0.566090000000     0.0529795  
H421     H      0.189310000000     0.723240000000     0.580940000000     0.0541092  
H422     H      0.229300000000     0.793430000000     0.606910000000     0.0531346  
H423     H      0.245820000000     0.701470000000     0.631940000000     0.0500499  
H424     H      0.191060000000     0.605120000000     0.596700000000     0.0491644  
H425     H      0.191090000000     0.550770000000     0.637300000000     0.0525865  
H426     H      0.248740000000     0.586560000000     0.646600000000     0.0522525  
H427     H      0.207050000000     0.684260000000     0.566910000000     0.051902   
H428     H      0.246970000000     0.754330000000     0.592840000000     0.0501376  
H429     H      0.230030000000     0.617580000000     0.661690000000     0.0533854  
H430     H      0.206780000000     0.514110000000     0.620520000000     0.0519978  
H431     H      0.114010000000     0.070080000000     0.444280000000     0.0525331  
H432     H      0.082500000000     0.033550000000     0.486360000000     0.0559753  
H433     H      0.111160000000     0.988000000000     0.514690000000     0.0518777  
H434     H      0.154280000000     0.040370000000     0.458640000000     0.051351   
H435     H      0.174180000000     0.936820000000     0.475400000000     0.052728   
H436     H      0.150100000000     0.957300000000     0.529180000000     0.0559138  
H437     H      0.123020000000     0.129380000000     0.457950000000     0.0519664  
H438     H      0.092520000000     0.093520000000     0.498930000000     0.0542896  
H439     H      0.143060000000     0.897550000000     0.514640000000     0.0531949  
H440     H      0.182740000000     0.999060000000     0.487710000000     0.055771   
H441     H      0.725270000000     0.298360000000     0.110450000000     0.0453793  
H442     H      0.730590000000     0.194170000000     0.073730000000     0.0477832  
H443     H      0.694580000000     0.121150000000     0.078470000000     0.0673414  
H444     H      0.687290000000     0.266380000000     0.130540000000     0.0523063  
H445     H      0.671670000000     0.161190000000     0.149310000000     0.0485639  
H446     H      0.656440000000     0.090780000000     0.098030000000     0.055638   
H447     H      0.704980000000     0.330910000000     0.097550000000     0.0511712  
H448     H      0.710530000000     0.224090000000     0.059690000000     0.0507736  
H449     H      0.676210000000     0.056540000000     0.111140000000     0.0635766  
H450     H      0.651770000000     0.193950000000     0.135870000000     0.050828   
H451     H      0.437940000000     0.091050000000     0.316010000000     0.0462911  
H452     H      0.445480000000     0.214390000000     0.345070000000     0.0673787  
H453     H      0.482570000000     0.188040000000     0.367700000000     0.0728669  
H454     H      0.471570000000     0.015400000000     0.327650000000     0.0515338  
H455     H      0.488090000000     0.969870000000     0.364940000000     0.0451008  
H456     H      0.516520000000     0.113750000000     0.378410000000     0.063732   
H457     H      0.459150000000     0.108600000000     0.301250000000     0.0553648  
H458     H      0.466700000000     0.233760000000     0.330500000000     0.0590078  
H459     H      0.495920000000     0.095260000000     0.393930000000     0.0616559  
H460     H      0.508610000000     0.989770000000     0.349650000000     0.0548403  
H461     H      0.669130000000     0.295110000000     0.252840000000     0.0557901  
H462     H      0.631740000000     0.355460000000     0.219430000000     0.0539683  
H463     H      0.594290000000     0.332200000000     0.240240000000     0.051261   
H464     H      0.644860000000     0.247840000000     0.284240000000     0.0515824  
H465     H      0.610990000000     0.166380000000     0.286580000000     0.0533139  
H466     H      0.570190000000     0.285110000000     0.272880000000     0.0531235  
H467     H      0.664570000000     0.353500000000     0.268910000000     0.0538304  
H468     H      0.628590000000     0.412140000000     0.236530000000     0.0523775  
H469     H      0.574130000000     0.229550000000     0.255510000000     0.0532988  
H470     H      0.607550000000     0.220410000000     0.304630000000     0.0527002  
H471     H      0.763410000000     0.522590000000     0.630980000000     0.0543168  
H472     H      0.747110000000     0.640770000000     0.659980000000     0.0469544  
H473     H      0.703380000000     0.625520000000     0.661230000000     0.0502327  
H474     H      0.725930000000     0.459960000000     0.622310000000     0.0635141  
H475     H      0.687010000000     0.488560000000     0.604270000000     0.0688739  
H476     H      0.666080000000     0.563240000000     0.652840000000     0.0499123  
H477     H      0.758300000000     0.475750000000     0.651210000000     0.062531   
H478     H      0.741800000000     0.593200000000     0.679870000000     0.0557186  
H479     H      0.670780000000     0.608970000000     0.632240000000     0.0464524  
H480     H      0.682290000000     0.443620000000     0.625050000000     0.0543916  
H481     H      0.499370000000     0.450550000000     0.337710000000     0.0443304  
H482     H      0.492120000000     0.591080000000     0.355200000000     0.0496127  
H483     H      0.529540000000     0.616650000000     0.377060000000     0.0636869  
H484     H      0.539210000000     0.419590000000     0.353560000000     0.0501513  
H485     H      0.558410000000     0.418870000000     0.392860000000     0.048357   
H486     H      0.569690000000     0.585570000000     0.392030000000     0.0564938  
H487     H      0.517780000000     0.475190000000     0.320660000000     0.0498628  
H488     H      0.510250000000     0.617650000000     0.338130000000     0.0519689  
H489     H      0.551720000000     0.562820000000     0.409810000000     0.0705675  
H490     H      0.576360000000     0.444270000000     0.375470000000     0.0498198  
H491     H      0.485170000000     0.467020000000     0.406490000000     0.0523998  
H492     H      0.518100000000     0.402200000000     0.438580000000     0.0561701  
H493     H      0.538540000000     0.311780000000     0.413600000000     0.0502831  
H494     H      0.491520000000     0.403030000000     0.367630000000     0.0490352  
H495     H      0.493140000000     0.280390000000     0.353460000000     0.0519818  
H496     H      0.547260000000     0.255730000000     0.376970000000     0.0507356  
H497     H      0.504000000000     0.496730000000     0.391320000000     0.0519331  
H498     H      0.539710000000     0.426790000000     0.426000000000     0.0532708  
H499     H      0.526940000000     0.216040000000     0.386650000000     0.052756   
H500     H      0.512220000000     0.322550000000     0.342610000000     0.0459738  
H501     H      0.572770000000     0.992740000000     0.369360000000     0.0529592  
H502     H      0.557630000000     0.910430000000     0.329330000000     0.0530138  
H503     H      0.537220000000     0.809020000000     0.348300000000     0.0500452  
H504     H      0.558450000000     0.926730000000     0.404760000000     0.0520887  
H505     H      0.562530000000     0.808480000000     0.420110000000     0.0532088  
H506     H      0.522270000000     0.744820000000     0.382150000000     0.0483625  
H507     H      0.548060000000     0.011460000000     0.376160000000     0.0577349  
H508     H      0.531880000000     0.923530000000     0.333410000000     0.0497018  
H509     H      0.547410000000     0.722440000000     0.379340000000     0.0458771  
H510     H      0.537680000000     0.832660000000     0.423630000000     0.054472   
H511     H      0.572760000000     0.579270000000     0.506370000000     0.0544126  
H512     H      0.602480000000     0.624190000000     0.465320000000     0.052623   
H513     H      0.639380000000     0.556950000000     0.469960000000     0.0515745  
H514     H      0.598220000000     0.493620000000     0.526100000000     0.0516306  
H515     H      0.638220000000     0.492670000000     0.542720000000     0.0547049  
H516     H      0.665460000000     0.472680000000     0.490400000000     0.0533514  
H517     H      0.568410000000     0.512280000000     0.494930000000     0.0550032  
H518     H      0.598560000000     0.557600000000     0.453450000000     0.053333   
H519     H      0.668820000000     0.540890000000     0.501300000000     0.0554935  
H520     H      0.635710000000     0.426020000000     0.530520000000     0.0529346  
H521     H      0.861820000000     0.822250000000     0.616770000000     0.046519   
H522     H      0.842470000000     0.948420000000     0.594320000000     0.0681643  
H523     H      0.808070000000     0.977770000000     0.619670000000     0.0632753  
H524     H      0.835000000000     0.804240000000     0.650970000000     0.0503179  
H525     H      0.791660000000     0.793250000000     0.657550000000     0.0469822  
H526     H      0.781400000000     0.960340000000     0.653800000000     0.0631261  
H527     H      0.871010000000     0.864160000000     0.636860000000     0.0500646  
H528     H      0.851690000000     0.989500000000     0.614580000000     0.0541411  
H529     H      0.771970000000     0.917570000000     0.634010000000     0.0554115  
H530     H      0.801170000000     0.837260000000     0.676880000000     0.055254   
H531     H      0.728880000000     0.330590000000     0.616060000000     0.0497544  
H532     H      0.709460000000     0.238040000000     0.577550000000     0.0564662  
H533     H      0.695440000000     0.139500000000     0.599530000000     0.0526835  
H534     H      0.721020000000     0.265020000000     0.652100000000     0.0499933  
H535     H      0.731790000000     0.151560000000     0.666340000000     0.0522694  
H536     H      0.688850000000     0.071130000000     0.635780000000     0.0534186  
H537     H      0.704000000000     0.347020000000     0.622960000000     0.0449681  
H538     H      0.684930000000     0.255910000000     0.585240000000     0.0536506  
H539     H      0.713510000000     0.059360000000     0.627120000000     0.0542199  
H540     H      0.706740000000     0.161780000000     0.674090000000     0.053267   
H541     H      0.749110000000     0.797770000000     0.641200000000     0.0494915  
H542     H      0.695870000000     0.819850000000     0.635330000000     0.054718   
H543     H      0.682790000000     0.715130000000     0.616040000000     0.0493082  
H544     H      0.754840000000     0.682040000000     0.624420000000     0.0447809  
H545     H      0.745690000000     0.627490000000     0.585670000000     0.0526231  
H546     H      0.687880000000     0.603420000000     0.598540000000     0.0528687  
H547     H      0.744080000000     0.747950000000     0.660290000000     0.0466626  
H548     H      0.691650000000     0.769390000000     0.654430000000     0.0497391  
H549     H      0.694430000000     0.652080000000     0.579590000000     0.0530743  
H550     H      0.741820000000     0.577690000000     0.604970000000     0.0510937  
H551     H      0.510210000000     0.661800000000     0.956160000000     0.0724988  
H552     H      0.488890000000     0.611170000000     0.911940000000     0.0574917  
H553     H      0.504710000000     0.689950000000     0.881420000000     0.0545726  
H554     H      0.534120000000     0.761360000000     0.943340000000     0.0509867  
H555     H      0.526520000000     0.866660000000     0.921080000000     0.046981   
H556     H      0.529260000000     0.789300000000     0.868900000000     0.0727146  
H557     H      0.534250000000     0.636470000000     0.948790000000     0.0511847  
H558     H      0.512520000000     0.584540000000     0.903870000000     0.0441674  
H559     H      0.504960000000     0.813820000000     0.875310000000     0.0530762  
H560     H      0.549950000000     0.840120000000     0.912590000000     0.0474554  
H561     H      0.591630000000     0.842370000000     0.762230000000     0.0542132  
H562     H      0.622970000000     0.730550000000     0.780000000000     0.053471   
H563     H      0.663580000000     0.773800000000     0.771790000000     0.0513506  
H564     H      0.620290000000     0.929250000000     0.748040000000     0.0518274  
H565     H      0.652890000000     0.931450000000     0.719730000000     0.0543373  
H566     H      0.692460000000     0.859740000000     0.756660000000     0.0535013  
H567     H      0.598400000000     0.886630000000     0.782410000000     0.0543286  
H568     H      0.630390000000     0.772950000000     0.800440000000     0.0543052  
H569     H      0.684810000000     0.815070000000     0.736890000000     0.0537     
H570     H      0.661440000000     0.972350000000     0.740100000000     0.0535024  
H571     H      0.723360000000     0.907970000000     0.142150000000     0.0617486  
H572     H      0.724630000000     0.794560000000     0.107730000000     0.0580127  
H573     H      0.759720000000     0.820230000000     0.083100000000     0.0550663  
H574     H      0.757830000000     0.978950000000     0.130770000000     0.0672754  
H575     H      0.769370000000     0.034320000000     0.093260000000     0.0592067  
H576     H      0.793400000000     0.894110000000     0.070290000000     0.0467217  
H577     H      0.744700000000     0.879480000000     0.154540000000     0.0544453  
H578     H      0.745760000000     0.764450000000     0.119860000000     0.0459906  
H579     H      0.770990000000     0.920070000000     0.059260000000     0.0597137  
H580     H      0.791770000000     0.009620000000     0.104740000000     0.069934   
H581     H      0.719980000000     0.298650000000     0.145690000000     0.0455982  
H582     H      0.691020000000     0.221870000000     0.182240000000     0.0495154  
H583     H      0.701420000000     0.104760000000     0.175190000000     0.0509762  
H584     H      0.740370000000     0.207570000000     0.125020000000     0.050505   
H585     H      0.729190000000     0.110110000000     0.103900000000     0.0494966  
H586     H      0.721440000000     0.010290000000     0.151190000000     0.0521362  
H587     H      0.741600000000     0.287300000000     0.160200000000     0.0508587  
H588     H      0.713120000000     0.211730000000     0.196270000000     0.0559257  
H589     H      0.697710000000     0.032740000000     0.142380000000     0.0535138  
H590     H      0.749000000000     0.079390000000     0.117640000000     0.0525118  
H591     H      0.683540000000     0.814510000000     0.137830000000     0.0565036  
H592     H      0.699330000000     0.727270000000     0.095370000000     0.0507168  
H593     H      0.690230000000     0.613030000000     0.108500000000     0.053046   
H594     H      0.669320000000     0.730110000000     0.165220000000     0.0518831  
H595     H      0.686790000000     0.631330000000     0.183980000000     0.0552732  
H596     H      0.676550000000     0.526190000000     0.138370000000     0.0520721  
H597     H      0.658580000000     0.802540000000     0.130080000000     0.0533355  
H598     H      0.673650000000     0.719400000000     0.089600000000     0.0538921  
H599     H      0.702090000000     0.543740000000     0.141750000000     0.0538997  
H600     H      0.661830000000     0.610340000000     0.179050000000     0.0534887  
H601     H      0.452490000000     0.250070000000     0.940530000000     0.0455673  
H602     H      0.468060000000     0.144830000000     0.906140000000     0.0696988  
H603     H      0.506000000000     0.191190000000     0.890640000000     0.0654847  
H604     H      0.485080000000     0.336170000000     0.939080000000     0.0525315  
H605     H      0.505480000000     0.404660000000     0.908270000000     0.0464255  
H606     H      0.539000000000     0.274550000000     0.890200000000     0.0607019  
H607     H      0.471740000000     0.228520000000     0.957170000000     0.0565855  
H608     H      0.487540000000     0.123350000000     0.922580000000     0.0583115  
H609     H      0.520580000000     0.299100000000     0.873080000000     0.0546838  
H610     H      0.523800000000     0.378390000000     0.924930000000     0.0588053  
H611     H      0.582040000000     0.093650000000     0.919250000000     0.0531707  
H612     H      0.539060000000     0.146420000000     0.893320000000     0.0540386  
H613     H      0.525510000000     0.045290000000     0.870780000000     0.0709346  
H614     H      0.584440000000     0.974060000000     0.906540000000     0.0493052  
H615     H      0.586600000000     0.914470000000     0.868050000000     0.0518306  
H616     H      0.527650000000     0.925160000000     0.858330000000     0.0573271  
H617     H      0.566320000000     0.053040000000     0.934980000000     0.0508172  
H618     H      0.523200000000     0.105950000000     0.909000000000     0.0514053  
H619     H      0.543660000000     0.964210000000     0.842450000000     0.0571424  
H620     H      0.571690000000     0.873790000000     0.884480000000     0.0519796  
H621     H      0.568000000000     0.542440000000     0.848910000000     0.0530425  
H622     H      0.541300000000     0.626890000000     0.884610000000     0.0481761  
H623     H      0.549830000000     0.569590000000     0.922090000000     0.0522018  
H624     H      0.585050000000     0.451520000000     0.873060000000     0.0514632  
H625     H      0.569300000000     0.367030000000     0.900050000000     0.0557215  
H626     H      0.567540000000     0.473930000000     0.946200000000     0.0533674  
H627     H      0.590830000000     0.570470000000     0.857990000000     0.0541086  
H628     H      0.564160000000     0.655380000000     0.893410000000     0.0514895  
H629     H      0.543430000000     0.456650000000     0.937210000000     0.05135    
H630     H      0.591880000000     0.389360000000     0.911320000000     0.0520977  
H631     H      0.628530000000     0.988750000000     0.046820000000     0.054439   
H632     H      0.667310000000     0.091860000000     0.034310000000     0.0524479  
H633     H      0.644690000000     0.192220000000     0.024040000000     0.0507935  
H634     H      0.592150000000     0.054210000000     0.041440000000     0.0515766  
H635     H      0.574710000000     0.113430000000     0.008810000000     0.055598   
H636     H      0.606540000000     0.256830000000     0.016120000000     0.0524388  
H637     H      0.625210000000     0.025160000000     0.069570000000     0.0506543  
H638     H      0.662820000000     0.125620000000     0.057350000000     0.0451873  
H639     H      0.614240000000     0.216330000000     0.995310000000     0.0538748  
H640     H      0.569220000000     0.159420000000     0.028920000000     0.05306    
N1       N      0.389700000000     0.674420000000     0.246700000000    -0.150553   
N2       N      0.316910000000     0.507810000000     0.211500000000    -0.150775   
N3       N      0.450720000000     0.364850000000     0.370910000000    -0.154846   
N4       N      0.450470000000     0.592060000000     0.311600000000    -0.150253   
N5       N      0.434870000000     0.078740000000     0.381390000000    -0.151505   
N6       N      0.436170000000     0.868140000000     0.315330000000    -0.150478   
N7       N      0.416040000000     0.272770000000     0.456010000000    -0.150661   
N8       N      0.353190000000     0.374590000000     0.524060000000    -0.151097   
N9       N      0.289690000000     0.284010000000     0.153520000000    -0.152184   
N10      N      0.300490000000     0.053290000000     0.097820000000    -0.150551   
N11      N      0.257290000000     0.787450000000     0.091690000000    -0.151746   
N12      N      0.247660000000     0.558590000000     0.148690000000    -0.151893   
N13      N      0.410330000000     0.684030000000     0.006240000000    -0.148878   
N14      N      0.332910000000     0.839540000000     0.037390000000    -0.150815   
N15      N      0.321480000000     0.056550000000     0.668590000000    -0.151652   
N16      N      0.319060000000     0.275390000000     0.605630000000    -0.151881   
N17      N      0.336080000000     0.782280000000     0.667000000000    -0.151683   
N18      N      0.335240000000     0.560710000000     0.605400000000    -0.151112   
N19      N      0.457910000000     0.490070000000     0.938530000000    -0.151027   
N20      N      0.459520000000     0.277610000000     0.873530000000    -0.152114   
N21      N      0.483910000000     0.988030000000     0.882700000000    -0.154068   
N22      N      0.473190000000     0.764350000000     0.942740000000    -0.15195    
N23      N      0.437650000000     0.081390000000     0.803990000000    -0.150417   
N24      N      0.367110000000     0.965250000000     0.746960000000    -0.150869   
N25      N      0.844020000000     0.098140000000     0.198980000000    -0.150592   
N26      N      0.921400000000     0.226440000000     0.242650000000    -0.150776   
N27      N      0.763710000000     0.405500000000     0.070370000000    -0.149972   
N28      N      0.783770000000     0.183120000000     0.128440000000    -0.154375   
N29      N      0.805990000000     0.891340000000     0.138100000000    -0.151653   
N30      N      0.787480000000     0.681050000000     0.074880000000    -0.150727   
N31      N      0.823350000000     0.492770000000     0.005470000000    -0.150213   
N32      N      0.901140000000     0.360620000000     0.963940000000    -0.15092    
N33      N      0.943970000000     0.620940000000     0.378620000000    -0.151457   
N34      N      0.959110000000     0.412950000000     0.313600000000    -0.150531   
N35      N      0.961610000000     0.912250000000     0.367240000000    -0.154361   
N36      N      0.978770000000     0.137520000000     0.309520000000    -0.150141   
N37      N      0.916100000000     0.826550000000     0.447330000000    -0.15053    
N38      N      0.849270000000     0.955510000000     0.505430000000    -0.150488   
N39      N      0.815820000000     0.631400000000     0.644150000000    -0.15141    
N40      N      0.808280000000     0.849610000000     0.581330000000    -0.151655   
N41      N      0.836070000000     0.348210000000     0.650760000000    -0.150869   
N42      N      0.826240000000     0.127100000000     0.589570000000    -0.152274   
N43      N      0.935590000000     0.143360000000     0.906130000000    -0.152129   
N44      N      0.943330000000     0.916700000000     0.848400000000    -0.150808   
N45      N      0.968850000000     0.428800000000     0.897810000000    -0.151602   
N46      N      0.981090000000     0.657320000000     0.840340000000    -0.150135   
N47      N      0.928390000000     0.732670000000     0.769820000000    -0.150373   
N48      N      0.863120000000     0.565410000000     0.722640000000    -0.15109    
N49      N      0.289760000000     0.570120000000     0.625080000000    -0.0927889  
N50      N      0.214700000000     0.425900000000     0.584770000000    -0.0918209  
N51      N      0.997740000000     0.274790000000     0.892400000000    -0.0808989  
N52      N      0.029290000000     0.094160000000     0.823580000000    -0.0836519  
N53      N      0.130930000000     0.211710000000     0.775100000000    -0.150532   
N54      N      0.202070000000     0.325810000000     0.718770000000    -0.150626   
N55      N      0.019780000000     0.563650000000     0.373840000000    -0.0924764  
N56      N      0.959530000000     0.712680000000     0.315350000000    -0.0909836  
N57      N      0.256110000000     0.165100000000     0.063730000000    -0.0916818  
N58      N      0.234950000000     0.055120000000     0.151680000000    -0.0795097  
N59      N      0.094660000000     0.770200000000     0.285800000000    -0.151929   
N60      N      0.162610000000     0.931060000000     0.239860000000    -0.1505     
N61      N      0.236010000000     0.337150000000     0.149830000000    -0.08018    
N62      N      0.198420000000     0.209930000000     0.070500000000    -0.0920171  
N63      N      0.177090000000     0.134060000000     0.168800000000    -0.151919   
N64      N      0.167040000000     0.356440000000     0.109540000000    -0.150595   
N65      N      0.193660000000     0.626060000000     0.102520000000    -0.151237   
N66      N      0.205180000000     0.854450000000     0.160240000000    -0.152161   
N67      N      0.008230000000     0.979190000000     0.896600000000    -0.0948082  
N68      N      0.967950000000     0.067540000000     0.812290000000    -0.0927234  
N69      N      0.052230000000     0.270790000000     0.830320000000    -0.152248   
N70      N      0.030930000000     0.493830000000     0.887480000000    -0.152079   
N71      N      0.043870000000     0.781970000000     0.884750000000    -0.151185   
N72      N      0.069150000000     0.994680000000     0.823780000000    -0.151319   
N73      N      0.075190000000     0.617810000000     0.962700000000    -0.15059    
N74      N      0.142330000000     0.523740000000     0.028030000000    -0.151322   
N75      N      0.088980000000     0.963380000000     0.395620000000    -0.0938809  
N76      N      0.022840000000     0.044370000000     0.328020000000    -0.0950598  
N77      N      0.066410000000     0.522720000000     0.343070000000    -0.150731   
N78      N      0.061950000000     0.292720000000     0.401050000000    -0.151467   
N79      N      0.027110000000     0.010580000000     0.415670000000    -0.151234   
N80      N      0.029440000000     0.782720000000     0.357890000000    -0.152545   
N81      N      0.301120000000     0.107230000000     0.579340000000    -0.0958311  
N82      N      0.368920000000     0.971980000000     0.633580000000    -0.0905773  
N83      N      0.225250000000     0.040100000000     0.570390000000    -0.151081   
N84      N      0.232120000000     0.270470000000     0.627710000000    -0.152819   
N85      N      0.220880000000     0.544960000000     0.646210000000    -0.152019   
N86      N      0.218190000000     0.757770000000     0.580720000000    -0.151215   
N87      N      0.169730000000     0.936610000000     0.505990000000    -0.150071   
N88      N      0.096090000000     0.095130000000     0.468230000000    -0.150612   
N89      N      0.658410000000     0.110580000000     0.127840000000    -0.0923159  
N90      N      0.723000000000     0.277470000000     0.080820000000    -0.0956556  
N91      N      0.507540000000     0.029110000000     0.377080000000    -0.0926316  
N92      N      0.447330000000     0.175240000000     0.317710000000    -0.0912434  
N93      N      0.584200000000     0.211870000000     0.284160000000    -0.151882   
N94      N      0.655160000000     0.366020000000     0.239760000000    -0.150489   
N95      N      0.668320000000     0.522680000000     0.625680000000    -0.0920882  
N96      N      0.760850000000     0.561600000000     0.658360000000    -0.0788506  
N97      N      0.570130000000     0.499150000000     0.398720000000    -0.0914151  
N98      N      0.498810000000     0.537380000000     0.331770000000    -0.0940244  
N99      N      0.522040000000     0.251090000000     0.358650000000    -0.151781   
N100     N      0.513190000000     0.471360000000     0.419730000000    -0.150421   
N101     N      0.540530000000     0.757620000000     0.406960000000    -0.152571   
N102     N      0.551590000000     0.981490000000     0.347040000000    -0.150691   
N103     N      0.659610000000     0.476170000000     0.520750000000    -0.15084    
N104     N      0.578090000000     0.577310000000     0.475900000000    -0.15086    
N105     N      0.778940000000     0.873700000000     0.659710000000    -0.0782964  
N106     N      0.864320000000     0.909160000000     0.611300000000    -0.0921219  
N107     N      0.711400000000     0.090180000000     0.656160000000    -0.151495   
N108     N      0.707180000000     0.312570000000     0.594580000000    -0.152278   
N109     N      0.716810000000     0.593750000000     0.587050000000    -0.151531   
N110     N      0.720520000000     0.803540000000     0.653620000000    -0.151541   
N111     N      0.528350000000     0.850590000000     0.890970000000    -0.0926945  
N112     N      0.510170000000     0.600960000000     0.933900000000    -0.0848077  
N113     N      0.679520000000     0.902670000000     0.732750000000    -0.150999   
N114     N      0.604020000000     0.799220000000     0.786380000000    -0.150588   
N115     N      0.786370000000     0.978370000000     0.076580000000    -0.0909704  
N116     N      0.729500000000     0.822880000000     0.136350000000    -0.0923494  
N117     N      0.721560000000     0.040120000000     0.122130000000    -0.152279   
N118     N      0.714600000000     0.277170000000     0.175250000000    -0.15144    
N119     N      0.683650000000     0.557970000000     0.166390000000    -0.150624   
N120     N      0.680170000000     0.787820000000     0.108360000000    -0.150771   
N121     N      0.527840000000     0.355690000000     0.895570000000    -0.0936088  
N122     N      0.464550000000     0.169970000000     0.935300000000    -0.0908838  
N123     N      0.557570000000     0.898190000000     0.858130000000    -0.149967   
N124     N      0.552120000000     0.119740000000     0.919870000000    -0.152451   
N125     N      0.566430000000     0.400260000000     0.928800000000    -0.151349   
N126     N      0.565420000000     0.618160000000     0.865250000000    -0.151873   
N127     N      0.585550000000     0.197420000000     0.006120000000    -0.150108   
N128     N      0.652300000000     0.041670000000     0.055270000000    -0.153814   
O1       O      0.563550000000     0.168290000000     0.946090000000    -0.250307   
O2       O      0.524540000000     0.298600000000     0.980330000000    -0.221398   
O3       O      0.552230000000     0.356400000000     0.954810000000    -0.250403   
O4       O      0.579520000000     0.256340000000     0.980480000000    -0.248776   
O5       O      0.557020000000     0.197660000000     0.988730000000    -0.250365   
O6       O      0.566410000000     0.305160000000     0.933340000000    -0.252313   
O7       O      0.537940000000     0.200320000000     0.931400000000    -0.247988   
O8       O      0.514380000000     0.233350000000     0.961450000000    -0.226984   
O9       O      0.682060000000     0.883290000000     0.105870000000    -0.24142    
O10      O      0.705770000000     0.899740000000     0.046870000000    -0.222564   
O11      O      0.719500000000     0.009700000000     0.090640000000    -0.249932   
O12      O      0.662080000000     0.959900000000     0.069910000000    -0.252624   
O13      O      0.684080000000     0.020920000000     0.062720000000    -0.261566   
O14      O      0.702390000000     0.966950000000     0.112320000000    -0.251398   
O15      O      0.692000000000     0.833940000000     0.081630000000    -0.25013    
O16      O      0.729420000000     0.914120000000     0.066820000000    -0.232229   
O17      O      0.570900000000     0.814020000000     0.849400000000    -0.250677   
O18      O      0.540430000000     0.700660000000     0.798660000000    -0.227075   
O19      O      0.554050000000     0.704340000000     0.856140000000    -0.257876   
O20      O      0.591490000000     0.741210000000     0.809860000000    -0.244581   
O21      O      0.572950000000     0.806580000000     0.798520000000    -0.249928   
O22      O      0.570580000000     0.656860000000     0.835190000000    -0.244845   
O23      O      0.544870000000     0.841750000000     0.834360000000    -0.24523    
O24      O      0.522820000000     0.748910000000     0.818240000000    -0.227867   
O25      O      0.711500000000     0.995460000000     0.661100000000    -0.250711   
O26      O      0.744500000000     0.968760000000     0.717330000000    -0.222822   
O27      O      0.705960000000     0.876450000000     0.669560000000    -0.247912   
O28      O      0.691130000000     0.959350000000     0.708490000000    -0.249249   
O29      O      0.709130000000     0.890160000000     0.717780000000    -0.249773   
O30      O      0.737020000000     0.864550000000     0.673460000000    -0.242233   
O31      O      0.720880000000     0.048280000000     0.684600000000    -0.249871   
O32      O      0.758150000000     0.949370000000     0.690090000000    -0.224072   
O33      O      0.528570000000     0.524840000000     0.442580000000    -0.252427   
O34      O      0.512080000000     0.678230000000     0.473900000000    -0.222515   
O35      O      0.538160000000     0.721080000000     0.437560000000    -0.249648   
O36      O      0.562320000000     0.614960000000     0.449600000000    -0.253562   
O37      O      0.544870000000     0.589980000000     0.474250000000    -0.243289   
O38      O      0.529650000000     0.668750000000     0.413570000000    -0.258923   
O39      O      0.509220000000     0.566500000000     0.422490000000    -0.246223   
O40      O      0.491770000000     0.633090000000     0.456170000000    -0.227048   
O41      O      0.702730000000     0.349370000000     0.564220000000    -0.245599   
O42      O      0.732020000000     0.385170000000     0.533900000000    -0.223804   
O43      O      0.698930000000     0.532110000000     0.568920000000    -0.254862   
O44      O      0.675170000000     0.444570000000     0.548060000000    -0.248024   
O45      O      0.692980000000     0.474360000000     0.524410000000    -0.249132   
O46      O      0.729730000000     0.515030000000     0.572920000000    -0.244813   
O47      O      0.714910000000     0.402830000000     0.586310000000    -0.26059    
O48      O      0.739910000000     0.472120000000     0.534720000000    -0.221143   
O49      O      0.550680000000     0.076950000000     0.344300000000    -0.241525   
O50      O      0.551960000000     0.192850000000     0.290450000000    -0.252931   
O51      O      0.539640000000     0.175160000000     0.348530000000    -0.24592    
O52      O      0.503780000000     0.124630000000     0.309600000000    -0.227377   
O53      O      0.522800000000     0.083500000000     0.289220000000    -0.218647   
O54      O      0.519690000000     0.213090000000     0.328170000000    -0.245773   
O55      O      0.542180000000     0.028120000000     0.319450000000    -0.247538   
O56      O      0.573700000000     0.151220000000     0.307740000000    -0.253191   
O57      O      0.699860000000     0.326670000000     0.199560000000    -0.249705   
O58      O      0.687590000000     0.382420000000     0.233570000000    -0.244073   
O59      O      0.695500000000     0.469870000000     0.172450000000    -0.248083   
O60      O      0.736610000000     0.434580000000     0.212670000000    -0.227058   
O61      O      0.717590000000     0.485140000000     0.230030000000    -0.224014   
O62      O      0.687210000000     0.520900000000     0.196850000000    -0.246678   
O63      O      0.717000000000     0.372570000000     0.178630000000    -0.241714   
O64      O      0.666340000000     0.414440000000     0.213210000000    -0.248216   
O65      O      0.230230000000     0.839950000000     0.568500000000    -0.253451   
O66      O      0.234880000000     0.825430000000     0.515260000000    -0.225553   
O67      O      0.207130000000     0.969300000000     0.557180000000    -0.250881   
O68      O      0.183840000000     0.895810000000     0.532650000000    -0.242393   
O69      O      0.202810000000     0.923970000000     0.509610000000    -0.249313   
O70      O      0.238520000000     0.966020000000     0.553720000000    -0.241985   
O71      O      0.206790000000     0.799550000000     0.552930000000    -0.245182   
O72      O      0.249890000000     0.903050000000     0.520580000000    -0.219661   
O73      O      0.044250000000     0.061570000000     0.437920000000    -0.25374    
O74      O      0.034090000000     0.217200000000     0.468600000000    -0.222091   
O75      O      0.049920000000     0.205040000000     0.407680000000    -0.253217   
O76      O      0.081540000000     0.140510000000     0.442660000000    -0.252553   
O77      O      0.063880000000     0.121720000000     0.467820000000    -0.242637   
O78      O      0.060040000000     0.255390000000     0.431580000000    -0.249384   
O79      O      0.027050000000     0.106750000000     0.416870000000    -0.245684   
O80      O      0.012010000000     0.179930000000     0.450730000000    -0.22743    
O81      O      0.025660000000     0.704510000000     0.892540000000    -0.252551   
O82      O      0.043400000000     0.636700000000     0.954250000000    -0.247602   
O83      O      0.034080000000     0.541080000000     0.916200000000    -0.250241   
O84      O      0.998050000000     0.614920000000     0.933510000000    -0.23616    
O85      O      0.005300000000     0.701680000000     0.936840000000    -0.228463   
O86      O      0.026780000000     0.588650000000     0.890680000000    -0.253823   
O87      O      0.049240000000     0.727820000000     0.911700000000    -0.24724    
O88      O      0.064680000000     0.627640000000     0.931330000000    -0.245924   
O89      O      0.181540000000     0.439240000000     0.101390000000    -0.243045   
O90      O      0.207600000000     0.408760000000     0.054060000000    -0.236216   
O91      O      0.189630000000     0.531760000000     0.099150000000    -0.241298   
O92      O      0.152130000000     0.503810000000     0.059050000000    -0.251312   
O93      O      0.173580000000     0.498130000000     0.036230000000    -0.250472   
O94      O      0.191130000000     0.581570000000     0.073090000000    -0.246991   
O95      O      0.169420000000     0.389290000000     0.078270000000    -0.249963   
O96      O      0.221100000000     0.486880000000     0.061400000000    -0.232286   
O97      O      0.205010000000     0.949260000000     0.165480000000    -0.245008   
O98      O      0.193100000000     0.938460000000     0.226280000000    -0.243729   
O99      O      0.193990000000     0.094610000000     0.194050000000    -0.24827    
O100     O      0.237840000000     0.003890000000     0.194090000000    -0.228415   
O101     O      0.225670000000     0.036630000000     0.220380000000    -0.222673   
O102     O      0.183000000000     0.040000000000     0.171610000000    -0.244349   
O103     O      0.203930000000     0.894370000000     0.190310000000    -0.248433   
O104     O      0.169970000000     0.989540000000     0.214500000000    -0.250577   
O105     O      0.065320000000     0.618390000000     0.340890000000    -0.241009   
O106     O      0.062960000000     0.751130000000     0.294120000000    -0.25402    
O107     O      0.029460000000     0.749420000000     0.326710000000    -0.246844   
O108     O      0.016700000000     0.655320000000     0.305280000000    -0.230518   
O109     O      0.038280000000     0.633440000000     0.283890000000    -0.220854   
O110     O      0.048320000000     0.709430000000     0.347590000000    -0.24784    
O111     O      0.054600000000     0.570420000000     0.316660000000    -0.249248   
O112     O      0.085260000000     0.694510000000     0.304140000000    -0.251557   
O113     O      0.068960000000     0.189000000000     0.824930000000    -0.251765   
O114     O      0.071420000000     0.123000000000     0.758350000000    -0.224536   
O115     O      0.061530000000     0.054010000000     0.798820000000    -0.248153   
O116     O      0.110350000000     0.137650000000     0.781490000000    -0.245443   
O117     O      0.099910000000     0.221230000000     0.787070000000    -0.252392   
O118     O      0.085150000000     0.077560000000     0.817850000000    -0.246807   
O119     O      0.057310000000     0.233210000000     0.800220000000    -0.246812   
O120     O      0.045760000000     0.153460000000     0.772990000000    -0.224752   
O121     O      0.215780000000     0.451800000000     0.652250000000    -0.254716   
O122     O      0.261580000000     0.404420000000     0.697810000000    -0.223943   
O123     O      0.250070000000     0.325600000000     0.648280000000    -0.249732   
O124     O      0.212890000000     0.398640000000     0.699850000000    -0.24799    
O125     O      0.224590000000     0.316220000000     0.694430000000    -0.249842   
O126     O      0.218540000000     0.329880000000     0.649970000000    -0.249084   
O127     O      0.239510000000     0.492600000000     0.667080000000    -0.256415   
O128     O      0.272370000000     0.389150000000     0.669010000000    -0.225632   
O129     O      0.962560000000     0.841330000000     0.840890000000    -0.246908   
O130     O      0.959810000000     0.751980000000     0.779350000000    -0.243539   
O131     O      0.972850000000     0.703010000000     0.812360000000    -0.247378   
O132     O      0.004920000000     0.819700000000     0.802060000000    -0.237996   
O133     O      0.985520000000     0.876470000000     0.787730000000    -0.233524   
O134     O      0.980520000000     0.752890000000     0.837320000000    -0.242482   
O135     O      0.948300000000     0.884830000000     0.817390000000    -0.247884   
O136     O      0.936130000000     0.788270000000     0.795840000000    -0.246586   
O137     O      0.833500000000     0.443280000000     0.654060000000    -0.247927   
O138     O      0.801900000000     0.458030000000     0.709270000000    -0.220447   
O139     O      0.833420000000     0.559940000000     0.657640000000    -0.246364   
O140     O      0.855410000000     0.505640000000     0.697720000000    -0.250038   
O141     O      0.832040000000     0.552340000000     0.711060000000    -0.251057   
O142     O      0.803970000000     0.573390000000     0.667930000000    -0.241083   
O143     O      0.827420000000     0.392330000000     0.679070000000    -0.249058   
O144     O      0.786660000000     0.483310000000     0.683410000000    -0.223221   
O145     O      0.958460000000     0.874410000000     0.397510000000    -0.252726   
O146     O      0.982430000000     0.742120000000     0.429780000000    -0.219575   
O147     O      0.958840000000     0.672300000000     0.402450000000    -0.254545   
O148     O      0.924500000000     0.781060000000     0.419220000000    -0.249782   
O149     O      0.947590000000     0.817170000000     0.436470000000    -0.245428   
O150     O      0.940530000000     0.716000000000     0.381950000000    -0.249657   
O151     O      0.961660000000     0.817870000000     0.373350000000    -0.260039   
O152     O      0.994110000000     0.779810000000     0.404020000000    -0.239283   
O153     O      0.822980000000     0.912790000000     0.561190000000    -0.255394   
O154     O      0.818160000000     0.961160000000     0.517780000000    -0.248886   
O155     O      0.823130000000     0.092570000000     0.558740000000    -0.245202   
O156     O      0.774460000000     0.988670000000     0.540320000000    -0.221129   
O157     O      0.787540000000     0.066880000000     0.532200000000    -0.224186   
O158     O      0.813290000000     0.040990000000     0.582430000000    -0.260713   
O159     O      0.793620000000     0.930790000000     0.571050000000    -0.243586   
O160     O      0.841700000000     0.998500000000     0.534160000000    -0.246426   
O161     O      0.957650000000     0.339450000000     0.902580000000    -0.247963   
O162     O      0.967530000000     0.261600000000     0.963490000000    -0.218429   
O163     O      0.936470000000     0.239230000000     0.907620000000    -0.243753   
O164     O      0.915300000000     0.313390000000     0.938680000000    -0.251918   
O165     O      0.934040000000     0.342870000000     0.961580000000    -0.244701   
O166     O      0.948250000000     0.192640000000     0.931710000000    -0.251379   
O167     O      0.963570000000     0.390210000000     0.927740000000    -0.247791   
O168     O      0.985930000000     0.278020000000     0.938830000000    -0.228798   
O169     O      0.771180000000     0.600840000000     0.066720000000    -0.241164   
O170     O      0.756950000000     0.610500000000     0.011880000000    -0.226034   
O171     O      0.766360000000     0.500210000000     0.066330000000    -0.240788   
O172     O      0.808820000000     0.535600000000     0.031480000000    -0.24957    
O173     O      0.790320000000     0.508200000000     0.008000000000    -0.246533   
O174     O      0.768130000000     0.448050000000     0.040880000000    -0.246896   
O175     O      0.789810000000     0.638650000000     0.045090000000    -0.242996   
O176     O      0.738630000000     0.549320000000     0.025520000000    -0.227711   
O177     O      0.789180000000     0.145490000000     0.158430000000    -0.252263   
O178     O      0.810950000000     0.086620000000     0.194810000000    -0.244209   
O179     O      0.809740000000     0.986410000000     0.140760000000    -0.248894   
O180     O      0.758840000000     0.045230000000     0.168740000000    -0.238372   
O181     O      0.774760000000     0.016440000000     0.193720000000    -0.218796   
O182     O      0.793040000000     0.943690000000     0.162780000000    -0.254495   
O183     O      0.788540000000     0.089470000000     0.133930000000    -0.260076   
O184     O      0.830200000000     0.055940000000     0.172490000000    -0.250638   
O185     O      0.975050000000     0.231680000000     0.305080000000    -0.242396   
O186     O      0.005730000000     0.278070000000     0.263860000000    -0.227478   
O187     O      0.975100000000     0.333150000000     0.304490000000    -0.241588   
O188     O      0.935520000000     0.269410000000     0.268880000000    -0.248935   
O189     O      0.954430000000     0.240010000000     0.246030000000    -0.247685   
O190     O      0.954920000000     0.370120000000     0.284050000000    -0.242449   
O191     O      0.977020000000     0.179560000000     0.279640000000    -0.245988   
O192     O      0.988100000000     0.341640000000     0.250600000000    -0.225932   
O193     O      0.476980000000     0.030330000000     0.853830000000    -0.254055   
O194     O      0.502610000000     0.160990000000     0.820500000000    -0.222039   
O195     O      0.459160000000     0.182340000000     0.869290000000    -0.253141   
O196     O      0.446790000000     0.129720000000     0.831220000000    -0.248745   
O197     O      0.468980000000     0.083060000000     0.815900000000    -0.242198   
O198     O      0.478280000000     0.231510000000     0.851140000000    -0.2555     
O199     O      0.487630000000     0.082250000000     0.877110000000    -0.264934   
O200     O      0.515760000000     0.135360000000     0.847330000000    -0.241672   
O201     O      0.338130000000     0.996940000000     0.688640000000    -0.251018   
O202     O      0.335720000000     0.963950000000     0.735290000000    -0.250622   
O203     O      0.334280000000     0.819000000000     0.697690000000    -0.243902   
O204     O      0.290760000000     0.935000000000     0.717420000000    -0.219327   
O205     O      0.302550000000     0.854440000000     0.724720000000    -0.224051   
O206     O      0.327300000000     0.872730000000     0.673570000000    -0.258449   
O207     O      0.307100000000     0.983130000000     0.684560000000    -0.242057   
O208     O      0.357550000000     0.915710000000     0.720100000000    -0.24712    
O209     O      0.449000000000     0.531590000000     0.967310000000    -0.24275    
O210     O      0.443520000000     0.671080000000     0.004720000000    -0.248206   
O211     O      0.475130000000     0.719360000000     0.972110000000    -0.248226   
O212     O      0.495220000000     0.625130000000     0.992000000000    -0.232444   
O213     O      0.475610000000     0.564670000000     0.004350000000    -0.224983   
O214     O      0.460980000000     0.676890000000     0.948320000000    -0.247553   
O215     O      0.470290000000     0.573280000000     0.949210000000    -0.246297   
O216     O      0.425800000000     0.634520000000     0.982220000000    -0.248449   
O217     O      0.269360000000     0.825820000000     0.063670000000    -0.247171   
O218     O      0.300470000000     0.863840000000     0.036440000000    -0.244475   
O219     O      0.289230000000     0.964440000000     0.092300000000    -0.24337    
O220     O      0.249630000000     0.950830000000     0.050930000000    -0.237283   
O221     O      0.272580000000     0.971480000000     0.030980000000    -0.224274   
O222     O      0.296280000000     0.015650000000     0.067490000000    -0.251489   
O223     O      0.268120000000     0.877800000000     0.089220000000    -0.245233   
O224     O      0.318120000000     0.896680000000     0.059700000000    -0.251141   
O225     O      0.448990000000     0.326330000000     0.401200000000    -0.251231   
O226     O      0.479620000000     0.192440000000     0.431060000000    -0.223608   
O227     O      0.433120000000     0.173550000000     0.386360000000    -0.250007   
O228     O      0.422710000000     0.221500000000     0.428650000000    -0.249471   
O229     O      0.445070000000     0.277040000000     0.439510000000    -0.24527    
O230     O      0.452690000000     0.125410000000     0.404400000000    -0.255001   
O231     O      0.455580000000     0.271650000000     0.377210000000    -0.26132    
O232     O      0.489160000000     0.234410000000     0.405290000000    -0.240411   
O233     O      0.302400000000     0.339950000000     0.587410000000    -0.246525   
O234     O      0.324750000000     0.369060000000     0.541570000000    -0.250277   
O235     O      0.329030000000     0.467360000000     0.601120000000    -0.252336   
O236     O      0.281490000000     0.432600000000     0.576220000000    -0.226512   
O237     O      0.292360000000     0.458040000000     0.548380000000    -0.223363   
O238     O      0.324800000000     0.522320000000     0.576730000000    -0.250566   
O239     O      0.333680000000     0.349770000000     0.590550000000    -0.248252   
O240     O      0.346730000000     0.428030000000     0.550900000000    -0.248692   
O241     O      0.256300000000     0.521600000000     0.178080000000    -0.251018   
O242     O      0.284920000000     0.478570000000     0.210790000000    -0.244401   
O243     O      0.282840000000     0.377690000000     0.155610000000    -0.244434   
O244     O      0.234350000000     0.403030000000     0.189710000000    -0.228155   
O245     O      0.254180000000     0.385100000000     0.213080000000    -0.218978   
O246     O      0.277450000000     0.326390000000     0.180780000000    -0.248492   
O247     O      0.257350000000     0.467550000000     0.153070000000    -0.248418   
O248     O      0.303660000000     0.455160000000     0.187040000000    -0.252027   
O249     O      0.449030000000     0.785430000000     0.304770000000    -0.244033   
O250     O      0.422490000000     0.693910000000     0.248110000000    -0.249634   
O251     O      0.442420000000     0.683660000000     0.306620000000    -0.244147   
O252     O      0.474120000000     0.726550000000     0.262690000000    -0.224344   
O253     O      0.456340000000     0.792570000000     0.251040000000    -0.225245   
O254     O      0.450030000000     0.633940000000     0.281630000000    -0.244755   
O255     O      0.427130000000     0.825130000000     0.286820000000    -0.24284    
O256     O      0.404620000000     0.718210000000     0.272410000000    -0.249276   


