data_structure

_audit_creation_method RASPA-1.0
_audit_creation_date 2023-5-23
_audit_author_name 'Poobodin Mano'

_cell_length_a    27.8727
_cell_length_b    55.7452
_cell_length_c    42.5262
_cell_angle_alpha 90.0024
_cell_angle_beta  90.0025
_cell_angle_gamma 119.999
_cell_volume      57224

_symmetry_cell_setting          triclinic
_symmetry_space_group_name_Hall 'P 1'
_symmetry_space_group_name_H-M  'P 1'
_symmetry_Int_Tables_number     1

_symmetry_equiv_pos_as_xyz 'x,y,z'

loop_
_atom_site_label
_atom_site_type_symbol
_atom_site_fract_x
_atom_site_fract_y
_atom_site_fract_z
_atom_site_charge
C1       C      0.856960000000     0.260350000000     0.529410000000     0.339243   
C2       C      0.676410000000     0.260150000000     0.490120000000     0.33918    
C3       C      0.751730000000     0.215830000000     0.450610000000     0.339973   
C4       C      0.693420000000     0.216100000000     0.569310000000     0.339963   
C5       C      0.612790000000     0.137210000000     0.156860000000     0.339071   
C6       C      0.612520000000     0.227310000000     0.196070000000     0.339215   
C7       C      0.701150000000     0.189840000000     0.235980000000     0.340076   
C8       C      0.701560000000     0.219160000000     0.117260000000     0.340076   
C9       C      0.420030000000     0.323440000000     0.489050000000     0.339191   
C10      C      0.239910000000     0.323640000000     0.528350000000     0.339171   
C11      C      0.403820000000     0.367950000000     0.567870000000     0.340048   
C12      C      0.345030000000     0.367710000000     0.449160000000     0.340189   
C13      C      0.485660000000     0.355380000000     0.195040000000     0.339048   
C14      C      0.485970000000     0.445600000000     0.155690000000     0.339135   
C15      C      0.397390000000     0.363790000000     0.115850000000     0.340171   
C16      C      0.396910000000     0.392990000000     0.234530000000     0.340071   
C17      C      0.240760000000     0.355960000000     0.822480000000     0.338973   
C18      C      0.421280000000     0.446000000000     0.861800000000     0.339285   
C19      C      0.346140000000     0.364030000000     0.901250000000     0.340077   
C20      C      0.404300000000     0.393510000000     0.782550000000     0.340004   
C21      C      0.857760000000     0.227870000000     0.823340000000     0.3391     
C22      C      0.677680000000     0.137630000000     0.862600000000     0.339114   
C23      C      0.752760000000     0.219410000000     0.902590000000     0.340278   
C24      C      0.693770000000     0.190370000000     0.783900000000     0.339833   
C25      C      0.440730000000     0.494310000000     0.871810000000    -0.0281026  
C26      C      0.658340000000     0.089230000000     0.871720000000    -0.0281728  
C27      C      0.582800000000     0.099120000000     0.873700000000    -0.0282277  
C28      C      0.561000000000     0.068880000000     0.875090000000     0.0185325  
C29      C      0.604060000000     0.063200000000     0.874390000000     0.0187328  
C30      C      0.593790000000     0.035900000000     0.873960000000    -0.0654339  
C31      C      0.516250000000     0.484380000000     0.873020000000    -0.0282557  
C32      C      0.505400000000     0.047670000000     0.874500000000    -0.0652816  
C33      C      0.538180000000     0.014690000000     0.873960000000     0.0188129  
C34      C      0.495130000000     0.020370000000     0.873820000000     0.0187027  
C35      C      0.934560000000     0.275350000000     0.812130000000    -0.0282319  
C36      C      0.163820000000     0.308520000000     0.811270000000    -0.0283255  
C37      C      0.144040000000     0.346290000000     0.813090000000    -0.0279435  
C38      C      0.092010000000     0.319170000000     0.810150000000     0.0185687  
C39      C      0.103360000000     0.297640000000     0.809540000000     0.0186493  
C40      C      0.060940000000     0.269840000000     0.809990000000    -0.065315   
C41      C      0.954360000000     0.237570000000     0.813370000000    -0.0280683  
C42      C      0.037400000000     0.314030000000     0.810330000000    -0.0652044  
C43      C      0.006340000000     0.264700000000     0.810280000000     0.01867    
C44      C      0.994980000000     0.286240000000     0.810010000000     0.0185844  
C45      C      0.385330000000     0.348430000000     0.944160000000    -0.0280541  
C46      C      0.327160000000     0.348150000000     0.072850000000    -0.0280215  
C47      C      0.414410000000     0.349430000000     0.063720000000    -0.0284948  
C48      C      0.384140000000     0.345080000000     0.033750000000     0.0185477  
C49      C      0.334610000000     0.344690000000     0.038850000000     0.0187121  
C50      C      0.302570000000     0.345060000000     0.013690000000    -0.0648997  
C51      C      0.300280000000     0.349370000000     0.953310000000    -0.028504   
C52      C      0.403700000000     0.345260000000     0.003320000000    -0.0645292  
C53      C      0.321980000000     0.345070000000     0.983260000000     0.0185298  
C54      C      0.370910000000     0.344880000000     0.978150000000     0.0183845  
C55      C      0.432920000000     0.416420000000     0.730450000000    -0.0284758  
C56      C      0.433160000000     0.359620000000     0.619890000000    -0.0285787  
C57      C      0.435020000000     0.403090000000     0.610850000000    -0.0281044  
C58      C      0.442160000000     0.399390000000     0.644830000000     0.0186772  
C59      C      0.441790000000     0.374720000000     0.649870000000     0.0187041  
C60      C      0.441710000000     0.364960000000     0.680270000000    -0.0651279  
C61      C      0.435480000000     0.374060000000     0.739470000000    -0.0281197  
C62      C      0.441290000000     0.415340000000     0.670040000000    -0.0651313  
C63      C      0.442320000000     0.381280000000     0.705480000000     0.0186996  
C64      C      0.441550000000     0.405660000000     0.700440000000     0.0186593  
C65      C      0.326540000000     0.373480000000     0.277450000000    -0.0281184  
C66      C      0.384080000000     0.402760000000     0.406110000000    -0.0281418  
C67      C      0.299290000000     0.359160000000     0.397020000000    -0.0286406  
C68      C      0.320950000000     0.374240000000     0.367030000000     0.0187147  
C69      C      0.369750000000     0.398980000000     0.372110000000     0.0186852  
C70      C      0.402580000000     0.414940000000     0.346920000000    -0.0651156  
C71      C      0.413540000000     0.415970000000     0.286550000000    -0.0285337  
C72      C      0.301750000000     0.364410000000     0.336610000000    -0.0651292  
C73      C      0.383210000000     0.405190000000     0.316510000000     0.0186901  
C74      C      0.333840000000     0.380750000000     0.311420000000     0.0186847  
C75      C      0.630880000000     0.098780000000     0.145750000000    -0.028252   
C76      C      0.468010000000     0.484060000000     0.144490000000    -0.0283408  
C77      C      0.563340000000     0.493970000000     0.146310000000    -0.0279768  
C78      C      0.561060000000     0.020040000000     0.144560000000     0.0187851  
C79      C      0.506650000000     0.014360000000     0.144080000000     0.0187784  
C80      C      0.493460000000     0.035570000000     0.144230000000    -0.0654275  
C81      C      0.535530000000     0.088880000000     0.147160000000    -0.0280952  
C82      C      0.605400000000     0.047340000000     0.144370000000    -0.0653631  
C83      C      0.537790000000     0.062870000000     0.144310000000     0.0187053  
C84      C      0.592220000000     0.068550000000     0.143940000000     0.0186034  
C85      C      0.535130000000     0.236980000000     0.205450000000    -0.0279845  
C86      C      0.562870000000     0.345700000000     0.205020000000    -0.0279848  
C87      C      0.467520000000     0.307920000000     0.206310000000    -0.0283526  
C88      C      0.506170000000     0.297040000000     0.208470000000     0.0186543  
C89      C      0.560600000000     0.318570000000     0.208170000000     0.018615   
C90      C      0.604940000000     0.313440000000     0.208450000000    -0.0652875  
C91      C      0.630450000000     0.274750000000     0.207220000000    -0.0282926  
C92      C      0.493000000000     0.269240000000     0.208160000000    -0.0652752  
C93      C      0.591760000000     0.285640000000     0.208910000000     0.0186246  
C94      C      0.537340000000     0.264100000000     0.208330000000     0.0186215  
C95      C      0.684900000000     0.233800000000     0.065230000000    -0.028621   
C96      C      0.798610000000     0.233730000000     0.954690000000    -0.0284653  
C97      C      0.713900000000     0.235020000000     0.945660000000    -0.0280179  
C98      C      0.728350000000     0.238470000000     0.979650000000     0.0185091  
C99      C      0.777100000000     0.238070000000     0.984690000000     0.0184509  
C100     C      0.796380000000     0.237880000000     0.015100000000    -0.0648184  
C101     C      0.771820000000     0.234720000000     0.074290000000    -0.0279846  
C102     C      0.695650000000     0.238110000000     0.004850000000    -0.0649041  
C103     C      0.764420000000     0.238270000000     0.040310000000     0.0185941  
C104     C      0.715110000000     0.238090000000     0.035250000000     0.0187431  
C105     C      0.662130000000     0.180980000000     0.612310000000    -0.0281792  
C106     C      0.662630000000     0.210010000000     0.741020000000    -0.028137   
C107     C      0.664330000000     0.167450000000     0.731840000000    -0.0285381  
C108     C      0.655750000000     0.178310000000     0.701900000000     0.0186644  
C109     C      0.655470000000     0.202810000000     0.707020000000     0.0187153  
C110     C      0.656420000000     0.219260000000     0.681860000000    -0.0652248  
C111     C      0.664850000000     0.224650000000     0.621470000000    -0.028689   
C112     C      0.655810000000     0.168640000000     0.671470000000    -0.0650854  
C113     C      0.656150000000     0.209500000000     0.651430000000     0.0187659  
C114     C      0.655270000000     0.184720000000     0.646310000000     0.0186717  
C115     C      0.933870000000     0.251350000000     0.540570000000    -0.028358   
C116     C      0.163170000000     0.332750000000     0.539600000000    -0.0283298  
C117     C      0.143300000000     0.285060000000     0.538340000000    -0.0279375  
C118     C      0.091340000000     0.286220000000     0.541490000000     0.0186051  
C119     C      0.102750000000     0.313450000000     0.541780000000     0.0186354  
C120     C      0.060350000000     0.320050000000     0.541460000000    -0.065257   
C121     C      0.953710000000     0.299020000000     0.538770000000    -0.0279153  
C122     C      0.036730000000     0.264070000000     0.541780000000    -0.0652815  
C123     C      0.005730000000     0.297900000000     0.541640000000     0.018585   
C124     C      0.994340000000     0.270680000000     0.542240000000     0.0186596  
C125     C      0.514920000000     0.332430000000     0.477880000000    -0.0283345  
C126     C      0.581430000000     0.251030000000     0.478890000000    -0.0283098  
C127     C      0.656930000000     0.298720000000     0.480120000000    -0.0280425  
C128     C      0.602660000000     0.297550000000     0.476980000000     0.0186587  
C129     C      0.559620000000     0.270330000000     0.476700000000     0.0186149  
C130     C      0.504000000000     0.263720000000     0.477020000000    -0.0652869  
C131     C      0.439420000000     0.284760000000     0.479700000000    -0.027914   
C132     C      0.592350000000     0.319710000000     0.476670000000    -0.0653439  
C133     C      0.493700000000     0.285880000000     0.476830000000     0.0185804  
C134     C      0.536740000000     0.313100000000     0.476210000000     0.0186581  
C135     C      0.771250000000     0.209420000000     0.279030000000    -0.0281256  
C136     C      0.712800000000     0.180630000000     0.407700000000    -0.0280938  
C137     C      0.797710000000     0.224160000000     0.398590000000    -0.0285312  
C138     C      0.776220000000     0.208970000000     0.368640000000     0.0186647  
C139     C      0.727350000000     0.184270000000     0.373720000000     0.0186975  
C140     C      0.694650000000     0.168230000000     0.348540000000    -0.0651706  
C141     C      0.684120000000     0.166990000000     0.288120000000    -0.0286486  
C142     C      0.795640000000     0.218680000000     0.338220000000    -0.0651108  
C143     C      0.714240000000     0.177860000000     0.318120000000     0.0187217  
C144     C      0.763700000000     0.202270000000     0.313040000000     0.0186802  
C145     C      0.856440000000     0.759860000000     0.529480000000     0.339131   
C146     C      0.675900000000     0.759650000000     0.490150000000     0.33928    
C147     C      0.751250000000     0.715360000000     0.450660000000     0.339876   
C148     C      0.692910000000     0.715620000000     0.569370000000     0.339867   
C149     C      0.612660000000     0.637080000000     0.156760000000     0.339012   
C150     C      0.612260000000     0.727140000000     0.196070000000     0.339261   
C151     C      0.700740000000     0.689610000000     0.236000000000     0.339856   
C152     C      0.701410000000     0.719050000000     0.117290000000     0.34005    
C153     C      0.419450000000     0.822890000000     0.489050000000     0.339195   
C154     C      0.239350000000     0.823100000000     0.528430000000     0.339145   
C155     C      0.403350000000     0.867420000000     0.567870000000     0.339858   
C156     C      0.344390000000     0.867170000000     0.449230000000     0.340103   
C157     C      0.485520000000     0.855270000000     0.195140000000     0.339032   
C158     C      0.485940000000     0.945620000000     0.156200000000     0.338917   
C159     C      0.397490000000     0.863910000000     0.115910000000     0.340041   
C160     C      0.396620000000     0.892750000000     0.234680000000     0.340195   
C161     C      0.240680000000     0.855860000000     0.822440000000     0.339243   
C162     C      0.421340000000     0.946050000000     0.861350000000     0.338982   
C163     C      0.346260000000     0.864170000000     0.901250000000     0.339953   
C164     C      0.404130000000     0.893300000000     0.782460000000     0.340093   
C165     C      0.857700000000     0.727700000000     0.823420000000     0.339181   
C166     C      0.677580000000     0.637480000000     0.862760000000     0.339195   
C167     C      0.752730000000     0.719280000000     0.902660000000     0.33989    
C168     C      0.693720000000     0.690130000000     0.783980000000     0.340203   
C169     C      0.440800000000     0.994400000000     0.870930000000    -0.028642   
C170     C      0.658220000000     0.589110000000     0.872150000000    -0.0280276  
C171     C      0.582700000000     0.599020000000     0.873990000000    -0.028315   
C172     C      0.560910000000     0.568790000000     0.875700000000     0.0186318  
C173     C      0.603950000000     0.563100000000     0.875080000000     0.0186226  
C174     C      0.593660000000     0.535790000000     0.874870000000    -0.065322   
C175     C      0.516470000000     0.984480000000     0.872010000000    -0.0290236  
C176     C      0.505300000000     0.547590000000     0.875240000000    -0.0653298  
C177     C      0.538050000000     0.514590000000     0.875190000000     0.0186087  
C178     C      0.495000000000     0.520290000000     0.874920000000     0.0186736  
C179     C      0.934460000000     0.775180000000     0.812160000000    -0.0283693  
C180     C      0.163750000000     0.808400000000     0.811310000000    -0.0283675  
C181     C      0.143930000000     0.846160000000     0.813060000000    -0.0279634  
C182     C      0.091900000000     0.819030000000     0.810150000000     0.0186268  
C183     C      0.103290000000     0.797500000000     0.809590000000     0.0186389  
C184     C      0.060890000000     0.769700000000     0.810070000000    -0.0652656  
C185     C      0.954310000000     0.737410000000     0.813470000000    -0.028055   
C186     C      0.037290000000     0.813880000000     0.810330000000    -0.0653454  
C187     C      0.006280000000     0.764550000000     0.810350000000     0.018617   
C188     C      0.994880000000     0.786070000000     0.810040000000     0.0186684  
C189     C      0.385530000000     0.848650000000     0.944190000000    -0.0279686  
C190     C      0.327340000000     0.848350000000     0.072890000000    -0.0280902  
C191     C      0.414610000000     0.849640000000     0.063750000000    -0.0285193  
C192     C      0.384350000000     0.845310000000     0.033780000000     0.018563   
C193     C      0.334830000000     0.844920000000     0.038880000000     0.0187305  
C194     C      0.302780000000     0.845290000000     0.013720000000    -0.0649251  
C195     C      0.300490000000     0.849600000000     0.953340000000    -0.0286017  
C196     C      0.403920000000     0.845490000000     0.003350000000    -0.0645543  
C197     C      0.322200000000     0.845310000000     0.983290000000     0.0185804  
C198     C      0.371130000000     0.845110000000     0.978180000000     0.0183579  
C199     C      0.432840000000     0.916150000000     0.730340000000    -0.0285366  
C200     C      0.432720000000     0.859120000000     0.619900000000    -0.0286502  
C201     C      0.434770000000     0.902630000000     0.610780000000    -0.0281671  
C202     C      0.441950000000     0.898970000000     0.644760000000     0.0186797  
C203     C      0.441470000000     0.874280000000     0.649850000000     0.0187331  
C204     C      0.441380000000     0.864550000000     0.680270000000    -0.0651866  
C205     C      0.435220000000     0.873750000000     0.739450000000    -0.0281334  
C206     C      0.441170000000     0.914980000000     0.669940000000    -0.0651247  
C207     C      0.442080000000     0.880930000000     0.705450000000     0.0187115  
C208     C      0.441420000000     0.905330000000     0.700360000000     0.0186668  
C209     C      0.326130000000     0.873140000000     0.277530000000    -0.0281401  
C210     C      0.383360000000     0.902290000000     0.406250000000    -0.0281302  
C211     C      0.298700000000     0.858650000000     0.397080000000    -0.0286275  
C212     C      0.320350000000     0.873780000000     0.367110000000     0.0187342  
C213     C      0.369080000000     0.898550000000     0.372240000000     0.0186704  
C214     C      0.401920000000     0.914560000000     0.347090000000    -0.0650935  
C215     C      0.413020000000     0.915670000000     0.286730000000    -0.0284886  
C216     C      0.301230000000     0.863980000000     0.336680000000    -0.065179   
C217     C      0.382640000000     0.904840000000     0.316660000000     0.018657   
C218     C      0.333330000000     0.880370000000     0.311530000000     0.0187098  
C219     C      0.630860000000     0.598710000000     0.145520000000    -0.0282257  
C220     C      0.467910000000     0.984130000000     0.145580000000    -0.0289425  
C221     C      0.563380000000     0.994030000000     0.147230000000    -0.0287253  
C222     C      0.561110000000     0.519980000000     0.143410000000     0.0186108  
C223     C      0.506680000000     0.514290000000     0.142800000000     0.018652   
C224     C      0.493470000000     0.535500000000     0.143290000000    -0.065337   
C225     C      0.535490000000     0.588780000000     0.146760000000    -0.0280508  
C226     C      0.605430000000     0.547290000000     0.143630000000    -0.065249   
C227     C      0.537800000000     0.562800000000     0.143630000000     0.0186907  
C228     C      0.592230000000     0.568490000000     0.143350000000     0.0185848  
C229     C      0.534870000000     0.736810000000     0.205420000000    -0.02805    
C230     C      0.562700000000     0.845550000000     0.205110000000    -0.0279882  
C231     C      0.467330000000     0.807790000000     0.206320000000    -0.0283025  
C232     C      0.505960000000     0.796890000000     0.208490000000     0.0186253  
C233     C      0.560400000000     0.818420000000     0.208230000000     0.0186487  
C234     C      0.604720000000     0.813280000000     0.208520000000    -0.0652995  
C235     C      0.630200000000     0.774580000000     0.207260000000    -0.028311   
C236     C      0.492770000000     0.769090000000     0.208150000000    -0.0652908  
C237     C      0.591520000000     0.785470000000     0.208940000000     0.0186219  
C238     C      0.537100000000     0.763950000000     0.208330000000     0.0186337  
C239     C      0.684810000000     0.733720000000     0.065260000000    -0.0286032  
C240     C      0.798570000000     0.733620000000     0.954760000000    -0.0284813  
C241     C      0.713880000000     0.734930000000     0.945700000000    -0.0280752  
C242     C      0.728310000000     0.738380000000     0.979690000000     0.0185347  
C243     C      0.777050000000     0.737970000000     0.984750000000     0.018458   
C244     C      0.796320000000     0.737790000000     0.015160000000    -0.0648094  
C245     C      0.771720000000     0.734630000000     0.074350000000    -0.0280102  
C246     C      0.695600000000     0.738030000000     0.004880000000    -0.064939   
C247     C      0.764350000000     0.738180000000     0.040360000000     0.0185935  
C248     C      0.715040000000     0.738010000000     0.035290000000     0.0187426  
C249     C      0.661750000000     0.680540000000     0.612390000000    -0.0282579  
C250     C      0.662450000000     0.709700000000     0.741080000000    -0.0281268  
C251     C      0.664300000000     0.667160000000     0.731940000000    -0.0286954  
C252     C      0.655600000000     0.677980000000     0.701990000000     0.0187555  
C253     C      0.655240000000     0.702460000000     0.707090000000     0.0186574  
C254     C      0.656060000000     0.718860000000     0.681910000000    -0.0651352  
C255     C      0.664330000000     0.724180000000     0.621510000000    -0.0285342  
C256     C      0.655620000000     0.668280000000     0.671570000000    -0.0651648  
C257     C      0.655750000000     0.709080000000     0.651490000000     0.0186765  
C258     C      0.654950000000     0.684310000000     0.646400000000     0.0187485  
C259     C      0.933330000000     0.750850000000     0.540660000000    -0.0284001  
C260     C      0.162650000000     0.832230000000     0.539700000000    -0.028284   
C261     C      0.142740000000     0.784530000000     0.538440000000    -0.0279998  
C262     C      0.090800000000     0.785700000000     0.541590000000     0.0186704  
C263     C      0.102220000000     0.812930000000     0.541880000000     0.0185978  
C264     C      0.059830000000     0.819540000000     0.541560000000    -0.065249   
C265     C      0.953190000000     0.798530000000     0.538860000000    -0.0279817  
C266     C      0.036180000000     0.763550000000     0.541880000000    -0.0653914  
C267     C      0.005210000000     0.797390000000     0.541740000000     0.0185915  
C268     C      0.993800000000     0.770170000000     0.542340000000     0.0186971  
C269     C      0.514350000000     0.831890000000     0.477860000000    -0.0283062  
C270     C      0.580920000000     0.750520000000     0.478900000000    -0.0283217  
C271     C      0.656410000000     0.798220000000     0.480140000000    -0.0280228  
C272     C      0.602120000000     0.797040000000     0.476980000000     0.0186449  
C273     C      0.559090000000     0.769820000000     0.476710000000     0.0186176  
C274     C      0.503480000000     0.763210000000     0.477020000000    -0.0652595  
C275     C      0.438870000000     0.784220000000     0.479690000000    -0.0279614  
C276     C      0.591800000000     0.819190000000     0.476670000000    -0.0652938  
C277     C      0.493150000000     0.785360000000     0.476820000000     0.0186182  
C278     C      0.536180000000     0.812580000000     0.476200000000     0.0186247  
C279     C      0.770810000000     0.709110000000     0.279080000000    -0.028122   
C280     C      0.712280000000     0.680200000000     0.407710000000    -0.0281001  
C281     C      0.797280000000     0.723700000000     0.398650000000    -0.0285751  
C282     C      0.775750000000     0.708550000000     0.368680000000     0.0186929  
C283     C      0.726830000000     0.683870000000     0.373740000000     0.0186626  
C284     C      0.694110000000     0.667880000000     0.348530000000    -0.0651086  
C285     C      0.683590000000     0.666720000000     0.288120000000    -0.0285679  
C286     C      0.795200000000     0.718290000000     0.338270000000    -0.065124   
C287     C      0.713720000000     0.677530000000     0.318130000000     0.0186949  
C288     C      0.763220000000     0.701920000000     0.313070000000     0.0187008  
Cd1      Cd     0.744520000000     0.238060000000     0.509870000000     0.512015   
Cd2      Cd     0.657120000000     0.193380000000     0.176550000000     0.512014   
Cd3      Cd     0.352190000000     0.345730000000     0.508600000000     0.512048   
Cd4      Cd     0.441390000000     0.389390000000     0.175270000000     0.511995   
Cd5      Cd     0.353210000000     0.389870000000     0.842010000000     0.511977   
Cd6      Cd     0.745480000000     0.193870000000     0.843120000000     0.511992   
Cd7      Cd     0.744020000000     0.737580000000     0.509920000000     0.512028   
Cd8      Cd     0.656870000000     0.693220000000     0.176540000000     0.512017   
Cd9      Cd     0.351610000000     0.845180000000     0.508640000000     0.512061   
Cd10     Cd     0.441310000000     0.889320000000     0.175430000000     0.512009   
Cd11     Cd     0.353150000000     0.889820000000     0.841910000000     0.512035   
Cd12     Cd     0.745430000000     0.693690000000     0.843210000000     0.512033   
H1       H      0.573150000000     0.106610000000     0.895710000000     0.0518456  
H2       H      0.684690000000     0.092210000000     0.892600000000     0.0511551  
H3       H      0.627280000000     0.031380000000     0.872900000000     0.0506701  
H4       H      0.471910000000     0.052210000000     0.873840000000     0.0506223  
H5       H      0.414230000000     0.490970000000     0.892720000000     0.0511881  
H6       H      0.533990000000     0.479150000000     0.852480000000     0.0542991  
H7       H      0.565030000000     0.104710000000     0.853460000000     0.0543604  
H8       H      0.681100000000     0.089270000000     0.850240000000     0.0545808  
H9       H      0.525910000000     0.476490000000     0.894710000000     0.0519432  
H10      H      0.418120000000     0.494640000000     0.850430000000     0.0544766  
H11      H      0.143800000000     0.357580000000     0.834580000000     0.0544679  
H12      H      0.174660000000     0.299600000000     0.831600000000     0.0543504  
H13      H      0.070010000000     0.253100000000     0.810860000000     0.0506148  
H14      H      0.028360000000     0.330780000000     0.811450000000     0.0505717  
H15      H      0.924090000000     0.284220000000     0.832670000000     0.0542933  
H16      H      0.947710000000     0.224320000000     0.792450000000     0.051175   
H17      H      0.150330000000     0.359570000000     0.792240000000     0.0511336  
H18      H      0.179150000000     0.303730000000     0.789370000000     0.0519359  
H19      H      0.954980000000     0.226260000000     0.834750000000     0.0544715  
H20      H      0.918820000000     0.280190000000     0.790430000000     0.0519454  
H21      H      0.456500000000     0.368010000000     0.062530000000     0.0553504  
H22      H      0.320360000000     0.365920000000     0.077070000000     0.0539961  
H23      H      0.265740000000     0.346530000000     0.017570000000     0.05058    
H24      H      0.443610000000     0.346880000000     0.999450000000     0.0502825  
H25      H      0.427560000000     0.366290000000     0.939990000000     0.053953   
H26      H      0.259690000000     0.330960000000     0.947430000000     0.0506426  
H27      H      0.418490000000     0.331100000000     0.069560000000     0.0507274  
H28      H      0.291490000000     0.329050000000     0.082570000000     0.0519888  
H29      H      0.295040000000     0.367860000000     0.954560000000     0.0553243  
H30      H      0.383060000000     0.329410000000     0.934390000000     0.0519552  
H31      H      0.473060000000     0.420990000000     0.601100000000     0.0519859  
H32      H      0.469970000000     0.357730000000     0.613970000000     0.0506752  
H33      H      0.438780000000     0.345070000000     0.684100000000     0.0505613  
H34      H      0.438040000000     0.433670000000     0.666210000000     0.0505806  
H35      H      0.469580000000     0.436790000000     0.736290000000     0.0506852  
H36      H      0.399940000000     0.352900000000     0.743670000000     0.0540067  
H37      H      0.399300000000     0.406350000000     0.606710000000     0.0539772  
H38      H      0.396180000000     0.338510000000     0.621110000000     0.0553642  
H39      H      0.473690000000     0.375310000000     0.749140000000     0.0519896  
H40      H      0.395730000000     0.418880000000     0.729300000000     0.055296   
H41      H      0.294290000000     0.338100000000     0.395890000000     0.0553812  
H42      H      0.426380000000     0.406130000000     0.410370000000     0.0540188  
H43      H      0.442380000000     0.433340000000     0.350790000000     0.0505637  
H44      H      0.265050000000     0.344470000000     0.332760000000     0.050579   
H45      H      0.319970000000     0.352350000000     0.273330000000     0.0539836  
H46      H      0.417410000000     0.436280000000     0.280620000000     0.0506898  
H47      H      0.258600000000     0.357180000000     0.402820000000     0.0507308  
H48      H      0.381600000000     0.420620000000     0.415770000000     0.0519982  
H49      H      0.455710000000     0.418550000000     0.287840000000     0.0553462  
H50      H      0.290790000000     0.374620000000     0.267640000000     0.0519929  
H51      H      0.586170000000     0.494080000000     0.167790000000     0.0544989  
H52      H      0.439310000000     0.478620000000     0.164820000000     0.0543739  
H53      H      0.450920000000     0.031040000000     0.145030000000     0.0507042  
H54      H      0.647940000000     0.051870000000     0.145270000000     0.0506898  
H55      H      0.659350000000     0.104170000000     0.166190000000     0.0543386  
H56      H      0.515550000000     0.092050000000     0.126200000000     0.0511805  
H57      H      0.583610000000     0.490850000000     0.125450000000     0.051163   
H58      H      0.443130000000     0.476410000000     0.122590000000     0.0519646  
H59      H      0.512420000000     0.088720000000     0.168530000000     0.0545306  
H60      H      0.656020000000     0.106470000000     0.123940000000     0.0519317  
H61      H      0.442120000000     0.303110000000     0.228000000000     0.0519935  
H62      H      0.582730000000     0.358970000000     0.225910000000     0.0511835  
H63      H      0.647480000000     0.330180000000     0.207560000000     0.0506295  
H64      H      0.450480000000     0.252490000000     0.207060000000     0.0506226  
H65      H      0.514890000000     0.223730000000     0.226320000000     0.0511413  
H66      H      0.659130000000     0.283650000000     0.186880000000     0.0543599  
H67      H      0.439300000000     0.299020000000     0.185780000000     0.0543239  
H68      H      0.586100000000     0.356980000000     0.183620000000     0.054465   
H69      H      0.655360000000     0.279570000000     0.229110000000     0.0519332  
H70      H      0.512280000000     0.225650000000     0.183980000000     0.0544983  
H71      H      0.716410000000     0.254120000000     0.935970000000     0.0519407  
H72      H      0.839330000000     0.252050000000     0.948850000000     0.0506737  
H73      H      0.833040000000     0.236250000000     0.018930000000     0.0505673  
H74      H      0.655880000000     0.236650000000     0.001010000000     0.0505904  
H75      H      0.681150000000     0.252210000000     0.071130000000     0.0507251  
H76      H      0.778320000000     0.216850000000     0.078440000000     0.0539747  
H77      H      0.671560000000     0.217260000000     0.941460000000     0.0539462  
H78      H      0.803500000000     0.215130000000     0.955860000000     0.0552693  
H79      H      0.807650000000     0.253740000000     0.084030000000     0.0519693  
H80      H      0.642680000000     0.215320000000     0.064010000000     0.0554081  
H81      H      0.701260000000     0.164790000000     0.730580000000     0.0553566  
H82      H      0.698390000000     0.231110000000     0.745200000000     0.0539905  
H83      H      0.659750000000     0.239220000000     0.685750000000     0.0506207  
H84      H      0.658670000000     0.150200000000     0.667580000000     0.0505431  
H85      H      0.697620000000     0.177560000000     0.608080000000     0.0540302  
H86      H      0.628230000000     0.226720000000     0.615650000000     0.0507605  
H87      H      0.627480000000     0.147170000000     0.737730000000     0.0506638  
H88      H      0.624620000000     0.208910000000     0.750800000000     0.0519749  
H89      H      0.702070000000     0.245670000000     0.622660000000     0.0553741  
H90      H      0.623900000000     0.163170000000     0.602590000000     0.0520136  
H91      H      0.142600000000     0.273430000000     0.516940000000     0.0544304  
H92      H      0.173610000000     0.346850000000     0.519060000000     0.0543102  
H93      H      0.069420000000     0.341320000000     0.540350000000     0.0506062  
H94      H      0.027640000000     0.242790000000     0.540910000000     0.0506055  
H95      H      0.922950000000     0.237000000000     0.520240000000     0.0543641  
H96      H      0.947500000000     0.309160000000     0.559640000000     0.05113    
H97      H      0.149980000000     0.275130000000     0.559240000000     0.0511613  
H98      H      0.178980000000     0.345460000000     0.561290000000     0.0519887  
H99      H      0.953910000000     0.310440000000     0.517290000000     0.0544651  
H100     H      0.918590000000     0.238910000000     0.562470000000     0.0519509  
H101     H      0.679510000000     0.310350000000     0.501510000000     0.0544628  
H102     H      0.563680000000     0.236940000000     0.499430000000     0.0543011  
H103     H      0.470540000000     0.242460000000     0.478150000000     0.0506305  
H104     H      0.625810000000     0.340980000000     0.477540000000     0.0506475  
H105     H      0.532720000000     0.346780000000     0.498210000000     0.0543717  
H106     H      0.412930000000     0.274610000000     0.458840000000     0.0511232  
H107     H      0.683460000000     0.308640000000     0.459220000000     0.0511967  
H108     H      0.571800000000     0.238310000000     0.457200000000     0.0519835  
H109     H      0.416800000000     0.273350000000     0.501190000000     0.0544678  
H110     H      0.524510000000     0.344860000000     0.455970000000     0.051939   
H111     H      0.802780000000     0.245230000000     0.397280000000     0.0553375  
H112     H      0.670510000000     0.177320000000     0.411800000000     0.053964   
H113     H      0.654800000000     0.149870000000     0.352390000000     0.0505889  
H114     H      0.832410000000     0.238590000000     0.334350000000     0.0505645  
H115     H      0.777930000000     0.230550000000     0.274760000000     0.054029   
H116     H      0.680230000000     0.146660000000     0.282350000000     0.0507174  
H117     H      0.838360000000     0.226140000000     0.404540000000     0.0506847  
H118     H      0.715140000000     0.162780000000     0.417530000000     0.0519845  
H119     H      0.641960000000     0.164450000000     0.289240000000     0.0553668  
H120     H      0.807020000000     0.208200000000     0.269390000000     0.0519838  
H121     H      0.573160000000     0.606690000000     0.895890000000     0.051921   
H122     H      0.684760000000     0.592240000000     0.892990000000     0.0511516  
H123     H      0.627130000000     0.531270000000     0.873730000000     0.050635   
H124     H      0.471830000000     0.552130000000     0.874380000000     0.0506186  
H125     H      0.414570000000     0.991060000000     0.891980000000     0.051553   
H126     H      0.533350000000     0.979170000000     0.851140000000     0.0547155  
H127     H      0.564860000000     0.604460000000     0.853660000000     0.0543401  
H128     H      0.680780000000     0.588990000000     0.850650000000     0.0545037  
H129     H      0.526130000000     0.976650000000     0.893750000000     0.0523915  
H130     H      0.418430000000     0.994490000000     0.849330000000     0.0548616  
H131     H      0.143690000000     0.857470000000     0.834530000000     0.0544706  
H132     H      0.174620000000     0.799510000000     0.831660000000     0.0543478  
H133     H      0.069970000000     0.752960000000     0.810960000000     0.0505943  
H134     H      0.028230000000     0.830610000000     0.811420000000     0.0506467  
H135     H      0.923990000000     0.784060000000     0.832690000000     0.0543297  
H136     H      0.947670000000     0.724150000000     0.792570000000     0.0511873  
H137     H      0.150180000000     0.859410000000     0.792190000000     0.0511403  
H138     H      0.179080000000     0.803600000000     0.789430000000     0.0519638  
H139     H      0.954950000000     0.726120000000     0.834870000000     0.0544617  
H140     H      0.918710000000     0.779990000000     0.790460000000     0.0519977  
H141     H      0.456690000000     0.868240000000     0.062580000000     0.0553475  
H142     H      0.320550000000     0.866110000000     0.077120000000     0.0540178  
H143     H      0.265950000000     0.846760000000     0.017600000000     0.0505908  
H144     H      0.443820000000     0.847110000000     0.999480000000     0.0503059  
H145     H      0.427750000000     0.866510000000     0.940000000000     0.0539203  
H146     H      0.259890000000     0.831200000000     0.947470000000     0.0506815  
H147     H      0.418720000000     0.831320000000     0.069570000000     0.0507482  
H148     H      0.291670000000     0.829240000000     0.082580000000     0.0520255  
H149     H      0.295300000000     0.868100000000     0.954580000000     0.0553391  
H150     H      0.383260000000     0.829620000000     0.934430000000     0.0519448  
H151     H      0.472830000000     0.920490000000     0.600980000000     0.0519989  
H152     H      0.469470000000     0.857190000000     0.613980000000     0.0507142  
H153     H      0.438350000000     0.844650000000     0.684140000000     0.0505955  
H154     H      0.438000000000     0.933330000000     0.666080000000     0.0505722  
H155     H      0.469540000000     0.936500000000     0.736160000000     0.0506771  
H156     H      0.399650000000     0.852610000000     0.743680000000     0.0539909  
H157     H      0.399100000000     0.905930000000     0.606640000000     0.0539993  
H158     H      0.395690000000     0.838040000000     0.621170000000     0.0553911  
H159     H      0.473400000000     0.874980000000     0.749140000000     0.0519903  
H160     H      0.395710000000     0.918650000000     0.729160000000     0.0553107  
H161     H      0.293790000000     0.837610000000     0.395910000000     0.055367   
H162     H      0.425690000000     0.905700000000     0.410510000000     0.0540255  
H163     H      0.441680000000     0.932980000000     0.351000000000     0.0505455  
H164     H      0.264590000000     0.844030000000     0.332790000000     0.0505972  
H165     H      0.319650000000     0.852030000000     0.273390000000     0.0539756  
H166     H      0.416820000000     0.935970000000     0.280820000000     0.0506436  
H167     H      0.257960000000     0.856620000000     0.402880000000     0.0507231  
H168     H      0.380770000000     0.920110000000     0.415940000000     0.051996   
H169     H      0.455230000000     0.918290000000     0.288040000000     0.0553289  
H170     H      0.290370000000     0.874260000000     0.267710000000     0.0520034  
H171     H      0.585480000000     0.993910000000     0.168930000000     0.0549444  
H172     H      0.439900000000     0.978610000000     0.166250000000     0.0547389  
H173     H      0.450930000000     0.530960000000     0.144160000000     0.0506607  
H174     H      0.647960000000     0.551820000000     0.144760000000     0.0506256  
H175     H      0.659050000000     0.603920000000     0.166070000000     0.0542873  
H176     H      0.515650000000     0.592120000000     0.125850000000     0.051201   
H177     H      0.583350000000     0.990900000000     0.126240000000     0.0515973  
H178     H      0.443100000000     0.976530000000     0.123640000000     0.0523595  
H179     H      0.512230000000     0.588450000000     0.168140000000     0.0544738  
H180     H      0.656290000000     0.606600000000     0.123840000000     0.0519824  
H181     H      0.441890000000     0.802950000000     0.228000000000     0.0519815  
H182     H      0.582520000000     0.858810000000     0.226030000000     0.0511797  
H183     H      0.647270000000     0.830010000000     0.207660000000     0.0506364  
H184     H      0.450250000000     0.752350000000     0.207010000000     0.0506323  
H185     H      0.514590000000     0.723560000000     0.226270000000     0.0511759  
H186     H      0.658920000000     0.783490000000     0.186940000000     0.0543653  
H187     H      0.439150000000     0.798920000000     0.185770000000     0.0543071  
H188     H      0.585970000000     0.856860000000     0.183730000000     0.0544538  
H189     H      0.655070000000     0.779370000000     0.229170000000     0.0519345  
H190     H      0.512070000000     0.725520000000     0.183930000000     0.054529   
H191     H      0.716410000000     0.754030000000     0.935990000000     0.0519548  
H192     H      0.839300000000     0.751940000000     0.948910000000     0.0506728  
H193     H      0.832970000000     0.736150000000     0.019010000000     0.0505574  
H194     H      0.655840000000     0.736570000000     0.001030000000     0.0506087  
H195     H      0.681080000000     0.752140000000     0.071160000000     0.0507144  
H196     H      0.778210000000     0.716760000000     0.078510000000     0.0539798  
H197     H      0.671540000000     0.717160000000     0.941500000000     0.0539533  
H198     H      0.803450000000     0.715020000000     0.955930000000     0.0552778  
H199     H      0.807530000000     0.753650000000     0.084100000000     0.0519773  
H200     H      0.642580000000     0.715240000000     0.064030000000     0.055407   
H201     H      0.701280000000     0.664550000000     0.730660000000     0.0553974  
H202     H      0.698180000000     0.730820000000     0.745220000000     0.0539815  
H203     H      0.659310000000     0.738810000000     0.685780000000     0.0505841  
H204     H      0.658550000000     0.649860000000     0.667690000000     0.0505738  
H205     H      0.697270000000     0.677150000000     0.608150000000     0.0540571  
H206     H      0.627650000000     0.726210000000     0.615710000000     0.0507064  
H207     H      0.627510000000     0.646880000000     0.737860000000     0.0507343  
H208     H      0.624430000000     0.708570000000     0.750870000000     0.0519918  
H209     H      0.701500000000     0.745230000000     0.622660000000     0.0553343  
H210     H      0.623520000000     0.662700000000     0.602720000000     0.0520278  
H211     H      0.142030000000     0.772900000000     0.517040000000     0.0544461  
H212     H      0.173080000000     0.846330000000     0.519160000000     0.054291   
H213     H      0.068910000000     0.840810000000     0.540440000000     0.0506066  
H214     H      0.027080000000     0.742280000000     0.541010000000     0.0506677  
H215     H      0.922410000000     0.736500000000     0.520330000000     0.054385   
H216     H      0.946990000000     0.808670000000     0.559720000000     0.0511519  
H217     H      0.149420000000     0.774600000000     0.559340000000     0.0511769  
H218     H      0.178460000000     0.844940000000     0.561390000000     0.0519741  
H219     H      0.953410000000     0.809950000000     0.517380000000     0.054489   
H220     H      0.918040000000     0.738410000000     0.562560000000     0.0519598  
H221     H      0.678970000000     0.809860000000     0.501520000000     0.0544601  
H222     H      0.563170000000     0.736430000000     0.499450000000     0.05431    
H223     H      0.470020000000     0.741940000000     0.478150000000     0.0506088  
H224     H      0.625250000000     0.840470000000     0.477530000000     0.0506198  
H225     H      0.532150000000     0.846260000000     0.498180000000     0.0543597  
H226     H      0.412380000000     0.774070000000     0.458830000000     0.0511303  
H227     H      0.682940000000     0.808140000000     0.459230000000     0.0511805  
H228     H      0.571300000000     0.737800000000     0.457220000000     0.0519922  
H229     H      0.416250000000     0.772810000000     0.501180000000     0.0544838  
H230     H      0.523920000000     0.844320000000     0.455950000000     0.0519243  
H231     H      0.802430000000     0.744790000000     0.397380000000     0.055356   
H232     H      0.670010000000     0.676910000000     0.411820000000     0.0539639  
H233     H      0.654220000000     0.649530000000     0.352370000000     0.050565   
H234     H      0.832010000000     0.738190000000     0.334430000000     0.0505694  
H235     H      0.777560000000     0.730260000000     0.274840000000     0.054014   
H236     H      0.679620000000     0.646370000000     0.282310000000     0.0507093  
H237     H      0.837880000000     0.725630000000     0.404590000000     0.0506987  
H238     H      0.714560000000     0.662320000000     0.417500000000     0.0519805  
H239     H      0.641460000000     0.664230000000     0.289240000000     0.0553461  
H240     H      0.806550000000     0.707880000000     0.269420000000     0.0519879  
N1       N      0.456290000000     0.472840000000     0.869720000000    -0.150312   
N2       N      0.642760000000     0.110720000000     0.870290000000    -0.150249   
N3       N      0.911450000000     0.245370000000     0.815430000000    -0.150275   
N4       N      0.186990000000     0.338500000000     0.814710000000    -0.150275   
N5       N      0.342450000000     0.352960000000     0.930200000000    -0.150482   
N6       N      0.379160000000     0.352810000000     0.086840000000    -0.150489   
N7       N      0.426190000000     0.395390000000     0.753520000000    -0.150478   
N8       N      0.425970000000     0.377150000000     0.596830000000    -0.150449   
N9       N      0.378500000000     0.394870000000     0.263470000000    -0.150518   
N10      N      0.341330000000     0.376790000000     0.420130000000    -0.150494   
N11      N      0.594050000000     0.110350000000     0.149020000000    -0.15029    
N12      N      0.504820000000     0.472490000000     0.147920000000    -0.150254   
N13      N      0.593670000000     0.244770000000     0.203820000000    -0.150339   
N14      N      0.504380000000     0.337900000000     0.202960000000    -0.150306   
N15      N      0.719950000000     0.230210000000     0.088300000000    -0.150494   
N16      N      0.756540000000     0.230360000000     0.931620000000    -0.150539   
N17      N      0.671510000000     0.207000000000     0.598340000000    -0.150371   
N18      N      0.671600000000     0.188540000000     0.754960000000    -0.150437   
N19      N      0.910730000000     0.269760000000     0.537170000000    -0.150321   
N20      N      0.186230000000     0.314300000000     0.536270000000    -0.150308   
N21      N      0.454970000000     0.314020000000     0.481300000000    -0.150303   
N22      N      0.641390000000     0.269480000000     0.482200000000    -0.150294   
N23      N      0.719350000000     0.188010000000     0.265010000000    -0.150458   
N24      N      0.755520000000     0.206630000000     0.421670000000    -0.150503   
N25      N      0.456440000000     0.972950000000     0.869010000000    -0.150318   
N26      N      0.642650000000     0.610590000000     0.870530000000    -0.150268   
N27      N      0.911380000000     0.745200000000     0.815500000000    -0.150286   
N28      N      0.186890000000     0.838380000000     0.814700000000    -0.150282   
N29      N      0.342640000000     0.853160000000     0.930230000000    -0.150466   
N30      N      0.379330000000     0.853000000000     0.086870000000    -0.150483   
N31      N      0.426030000000     0.895130000000     0.753440000000    -0.150476   
N32      N      0.425580000000     0.876640000000     0.596810000000    -0.150398   
N33      N      0.378100000000     0.894580000000     0.263610000000    -0.150521   
N34      N      0.340670000000     0.876280000000     0.420220000000    -0.150476   
N35      N      0.593980000000     0.610240000000     0.148840000000    -0.150287   
N36      N      0.504800000000     0.972570000000     0.148700000000    -0.150253   
N37      N      0.593410000000     0.744600000000     0.203820000000    -0.150332   
N38      N      0.504210000000     0.837770000000     0.203030000000    -0.150306   
N39      N      0.719840000000     0.730120000000     0.088340000000    -0.150483   
N40      N      0.756520000000     0.730250000000     0.931680000000    -0.150476   
N41      N      0.671030000000     0.706540000000     0.598390000000    -0.150466   
N42      N      0.671530000000     0.688270000000     0.755040000000    -0.150477   
N43      N      0.910210000000     0.769270000000     0.537250000000    -0.150266   
N44      N      0.185680000000     0.813770000000     0.536370000000    -0.1503     
N45      N      0.454400000000     0.813480000000     0.481290000000    -0.150313   
N46      N      0.640880000000     0.768980000000     0.482220000000    -0.150289   
N47      N      0.718890000000     0.687750000000     0.265040000000    -0.150406   
N48      N      0.755050000000     0.706170000000     0.421710000000    -0.150451   
O1       O      0.727300000000     0.276500000000     0.496360000000    -0.242955   
O2       O      0.699200000000     0.200600000000     0.549550000000    -0.243059   
O3       O      0.838660000000     0.276630000000     0.523020000000    -0.242864   
O4       O      0.714840000000     0.200440000000     0.470370000000    -0.243081   
O5       O      0.784480000000     0.240630000000     0.458720000000    -0.25325    
O6       O      0.823070000000     0.234610000000     0.527450000000    -0.251597   
O7       O      0.658860000000     0.234430000000     0.492360000000    -0.251611   
O8       O      0.710300000000     0.240880000000     0.561140000000    -0.253311   
O9       O      0.579970000000     0.201870000000     0.189690000000    -0.242804   
O10      O      0.652020000000     0.210810000000     0.125400000000    -0.253335   
O11      O      0.580150000000     0.146340000000     0.163140000000    -0.242851   
O12      O      0.651620000000     0.173440000000     0.227780000000    -0.25333    
O13      O      0.732070000000     0.208260000000     0.216240000000    -0.243152   
O14      O      0.664250000000     0.154150000000     0.159010000000    -0.251528   
O15      O      0.664000000000     0.236120000000     0.194100000000    -0.251564   
O16      O      0.732320000000     0.216070000000     0.137010000000    -0.243037   
O17      O      0.258100000000     0.307290000000     0.522100000000    -0.242943   
O18      O      0.381850000000     0.383180000000     0.468900000000    -0.243212   
O19      O      0.369170000000     0.307160000000     0.495450000000    -0.242849   
O20      O      0.387090000000     0.343180000000     0.559730000000    -0.253414   
O21      O      0.397650000000     0.383340000000     0.548130000000    -0.243037   
O22      O      0.437630000000     0.349180000000     0.491010000000    -0.251578   
O23      O      0.273800000000     0.349360000000     0.526120000000    -0.251595   
O24      O      0.312270000000     0.342940000000     0.457360000000    -0.253298   
O25      O      0.434490000000     0.428670000000     0.157660000000    -0.251555   
O26      O      0.366150000000     0.374530000000     0.214770000000    -0.243063   
O27      O      0.434210000000     0.346590000000     0.192810000000    -0.251554   
O28      O      0.366440000000     0.366720000000     0.135600000000    -0.243133   
O29      O      0.446940000000     0.372210000000     0.124030000000    -0.253351   
O30      O      0.518330000000     0.380830000000     0.188770000000    -0.242833   
O31      O      0.518530000000     0.436450000000     0.162100000000    -0.242804   
O32      O      0.446480000000     0.409390000000     0.226420000000    -0.253323   
O33      O      0.370380000000     0.436900000000     0.855570000000    -0.242964   
O34      O      0.398460000000     0.375080000000     0.802270000000    -0.243042   
O35      O      0.259080000000     0.381390000000     0.828890000000    -0.242813   
O36      O      0.313300000000     0.372400000000     0.893170000000    -0.253342   
O37      O      0.383040000000     0.367120000000     0.881480000000    -0.24311    
O38      O      0.274630000000     0.347140000000     0.824430000000    -0.251406   
O39      O      0.438850000000     0.429070000000     0.859540000000    -0.251693   
O40      O      0.387480000000     0.409860000000     0.790790000000    -0.253339   
O41      O      0.728530000000     0.146790000000     0.856150000000    -0.242792   
O42      O      0.700030000000     0.208830000000     0.803690000000    -0.243005   
O43      O      0.823910000000     0.236670000000     0.825590000000    -0.25158    
O44      O      0.785460000000     0.211000000000     0.894360000000    -0.25341    
O45      O      0.715920000000     0.216490000000     0.882870000000    -0.243224   
O46      O      0.839530000000     0.202420000000     0.829580000000    -0.242905   
O47      O      0.660070000000     0.154570000000     0.860730000000    -0.25157    
O48      O      0.710450000000     0.173920000000     0.791970000000    -0.25325    
O49      O      0.726790000000     0.776010000000     0.496400000000    -0.24296    
O50      O      0.698730000000     0.700130000000     0.549610000000    -0.242997   
O51      O      0.838160000000     0.776150000000     0.523080000000    -0.242808   
O52      O      0.714330000000     0.699970000000     0.470410000000    -0.243028   
O53      O      0.784030000000     0.740150000000     0.458790000000    -0.25324    
O54      O      0.822550000000     0.734120000000     0.527520000000    -0.251564   
O55      O      0.658360000000     0.733940000000     0.492400000000    -0.25172    
O56      O      0.709750000000     0.740400000000     0.561170000000    -0.253163   
O57      O      0.579700000000     0.701710000000     0.189660000000    -0.242828   
O58      O      0.651850000000     0.710690000000     0.125400000000    -0.253332   
O59      O      0.579970000000     0.646190000000     0.163010000000    -0.24281    
O60      O      0.651220000000     0.673240000000     0.227770000000    -0.253266   
O61      O      0.731730000000     0.708040000000     0.216270000000    -0.242979   
O62      O      0.664100000000     0.654020000000     0.159010000000    -0.251544   
O63      O      0.663740000000     0.735940000000     0.194130000000    -0.251599   
O64      O      0.732140000000     0.715950000000     0.137050000000    -0.243064   
O65      O      0.257530000000     0.806740000000     0.522170000000    -0.242855   
O66      O      0.381190000000     0.882650000000     0.468990000000    -0.243098   
O67      O      0.368600000000     0.806610000000     0.495470000000    -0.242844   
O68      O      0.386530000000     0.842630000000     0.559770000000    -0.25333    
O69      O      0.397200000000     0.882810000000     0.548110000000    -0.242951   
O70      O      0.437040000000     0.848630000000     0.491010000000    -0.251572   
O71      O      0.273250000000     0.848810000000     0.526190000000    -0.251687   
O72      O      0.311700000000     0.842390000000     0.457400000000    -0.253348   
O73      O      0.434450000000     0.928670000000     0.158090000000    -0.251515   
O74      O      0.365940000000     0.874330000000     0.214870000000    -0.243106   
O75      O      0.434080000000     0.846490000000     0.192890000000    -0.251582   
O76      O      0.366490000000     0.866780000000     0.135680000000    -0.243135   
O77      O      0.447030000000     0.872310000000     0.124120000000    -0.253288   
O78      O      0.518210000000     0.880730000000     0.188920000000    -0.242843   
O79      O      0.518490000000     0.936440000000     0.162480000000    -0.24283    
O80      O      0.446200000000     0.909190000000     0.226630000000    -0.253406   
O81      O      0.370380000000     0.936910000000     0.855240000000    -0.242901   
O82      O      0.398280000000     0.874910000000     0.802240000000    -0.24305    
O83      O      0.258970000000     0.881300000000     0.828800000000    -0.242835   
O84      O      0.313410000000     0.872530000000     0.893140000000    -0.253299   
O85      O      0.383090000000     0.867200000000     0.881460000000    -0.243129   
O86      O      0.274560000000     0.847070000000     0.824410000000    -0.251704   
O87      O      0.438880000000     0.929100000000     0.859180000000    -0.251636   
O88      O      0.387360000000     0.909680000000     0.790640000000    -0.253429   
O89      O      0.728430000000     0.646620000000     0.856350000000    -0.242872   
O90      O      0.699930000000     0.708590000000     0.803750000000    -0.243116   
O91      O      0.823830000000     0.736490000000     0.825650000000    -0.251577   
O92      O      0.785420000000     0.710850000000     0.894440000000    -0.253216   
O93      O      0.715900000000     0.716360000000     0.882920000000    -0.243035   
O94      O      0.839490000000     0.702260000000     0.829690000000    -0.242972   
O95      O      0.659980000000     0.654420000000     0.860820000000    -0.251608   
O96      O      0.710460000000     0.673720000000     0.792070000000    -0.253463   


