data_structure

_audit_creation_method RASPA-1.0
_audit_creation_date 2023-5-22
_audit_author_name 'Poobodin Mano'

_cell_length_a    32.148
_cell_length_b    35.415
_cell_length_c    36.2673
_cell_angle_alpha 90
_cell_angle_beta  90
_cell_angle_gamma 90
_cell_volume      41291.1

_symmetry_cell_setting          triclinic
_symmetry_space_group_name_Hall 'P 1'
_symmetry_space_group_name_H-M  'P 1'
_symmetry_Int_Tables_number     1

_symmetry_equiv_pos_as_xyz 'x,y,z'

loop_
_atom_site_label
_atom_site_type_symbol
_atom_site_fract_x
_atom_site_fract_y
_atom_site_fract_z
_atom_site_charge
C1       C      0.901120000000     0.406640000000     0.924560000000     0.341609   
C2       C      0.844100000000     0.411610000000     0.796980000000     0.339334   
C3       C      0.947310000000     0.329350000000     0.832490000000     0.340882   
C4       C      0.804330000000     0.321980000000     0.882150000000     0.340428   
C5       C      0.115120000000     0.551570000000     0.026170000000     0.342846   
C6       C      0.226680000000     0.633280000000     0.033280000000     0.340211   
C7       C      0.118030000000     0.646720000000     0.119120000000     0.33981    
C8       C      0.208330000000     0.539620000000     0.125220000000     0.341394   
C9       C      0.349290000000     0.834460000000     0.897260000000     0.341623   
C10      C      0.355930000000     0.922860000000     0.805230000000     0.339229   
C11      C      0.466410000000     0.917200000000     0.894800000000     0.340136   
C12      C      0.459250000000     0.825560000000     0.807570000000     0.340981   
C13      C      0.696400000000     0.145340000000     0.057440000000     0.33984    
C14      C      0.608330000000     0.050450000000     0.085600000000     0.340022   
C15      C      0.749310000000     0.052290000000     0.139410000000     0.337892   
C16      C      0.641550000000     0.124760000000     0.183560000000     0.341172   
C17      C      0.372490000000     0.403480000000     0.303620000000     0.339235   
C18      C      0.366320000000     0.281540000000     0.372570000000     0.342094   
C19      C      0.462090000000     0.303610000000     0.285100000000     0.339715   
C20      C      0.456210000000     0.375800000000     0.403230000000     0.340731   
C21      C      0.677040000000     0.574460000000     0.643980000000     0.340418   
C22      C      0.586150000000     0.670050000000     0.620780000000     0.339179   
C23      C      0.700350000000     0.656720000000     0.537830000000     0.339235   
C24      C      0.599870000000     0.571520000000     0.529730000000     0.340651   
C25      C      0.996370000000     0.797320000000     0.313410000000     0.340499   
C26      C      0.898270000000     0.818420000000     0.414300000000     0.341076   
C27      C      0.010460000000     0.895620000000     0.398430000000     0.3391     
C28      C      0.897100000000     0.895700000000     0.310930000000     0.339149   
C29      C      0.090700000000     0.184630000000     0.652370000000     0.340519   
C30      C      0.211940000000     0.103350000000     0.649420000000     0.341998   
C31      C      0.102350000000     0.090670000000     0.561370000000     0.33916    
C32      C      0.196810000000     0.194500000000     0.563820000000     0.340041   
C33      C      0.061890000000     0.981610000000     0.427730000000     0.0185662  
C34      C      0.070330000000     0.048860000000     0.438200000000    -0.0411963  
C35      C      0.069300000000     0.077500000000     0.501430000000    -0.0289651  
C36      C      0.067180000000     0.043570000000     0.476400000000     0.0178377  
C37      C      0.059040000000     0.033520000000     0.555710000000    -0.0288451  
C38      C      0.057980000000     0.000970000000     0.528960000000     0.018099   
C39      C      0.067970000000     0.018230000000     0.414170000000    -0.04144    
C40      C      0.061430000000     0.006890000000     0.490640000000    -0.00526507 
C41      C      0.052470000000     0.964250000000     0.542550000000    -0.0412978  
C42      C      0.050620000000     0.933560000000     0.518580000000    -0.0412375  
C43      C      0.051780000000     0.905130000000     0.455150000000    -0.028963   
C44      C      0.053690000000     0.938890000000     0.480390000000     0.0183151  
C45      C      0.060140000000     0.948970000000     0.401030000000    -0.029301   
C46      C      0.059130000000     0.975640000000     0.466140000000    -0.00571376 
C47      C      0.744090000000     0.731710000000     0.478960000000     0.0184288  
C48      C      0.759280000000     0.793740000000     0.453800000000    -0.0411142  
C49      C      0.832070000000     0.818840000000     0.448730000000    -0.0284755  
C50      C      0.802000000000     0.787900000000     0.458900000000     0.0179181  
C51      C      0.891020000000     0.775910000000     0.467840000000    -0.0284988  
C52      C      0.859020000000     0.746910000000     0.478920000000     0.0176669  
C53      C      0.730720000000     0.765810000000     0.463290000000    -0.0415645  
C54      C      0.816110000000     0.753580000000     0.474130000000    -0.00533597 
C55      C      0.872370000000     0.712830000000     0.494570000000    -0.0413002  
C56      C      0.843690000000     0.685400000000     0.505140000000    -0.0415159  
C57      C      0.771070000000     0.660820000000     0.512240000000    -0.0289063  
C58      C      0.800920000000     0.691360000000     0.500390000000     0.0176395  
C59      C      0.712490000000     0.701460000000     0.487060000000    -0.0293307  
C60      C      0.786870000000     0.725380000000     0.484520000000    -0.00563513 
C61      C      0.288390000000     0.225090000000     0.515050000000     0.0187806  
C62      C      0.354520000000     0.217310000000     0.483630000000    -0.0409644  
C63      C      0.362070000000     0.227190000000     0.415300000000    -0.0285356  
C64      C      0.336090000000     0.226800000000     0.449880000000     0.0188675  
C65      C      0.299290000000     0.247750000000     0.379600000000    -0.0285854  
C66      C      0.274270000000     0.245860000000     0.414780000000     0.0186472  
C67      C      0.331010000000     0.216820000000     0.515910000000    -0.0411294  
C68      C      0.293270000000     0.235660000000     0.448500000000    -0.00535203 
C69      C      0.231700000000     0.254300000000     0.413970000000    -0.0409361  
C70      C      0.208050000000     0.253070000000     0.446150000000    -0.0410162  
C71      C      0.199940000000     0.242400000000     0.514260000000    -0.0286501  
C72      C      0.226370000000     0.243250000000     0.479900000000     0.0183101  
C73      C      0.264040000000     0.225610000000     0.550550000000    -0.0290934  
C74      C      0.269240000000     0.234710000000     0.481310000000    -0.00523795 
C75      C      0.581970000000     0.490120000000     0.469420000000     0.0184248  
C76      C      0.584330000000     0.425900000000     0.445990000000    -0.0410367  
C77      C      0.520290000000     0.385730000000     0.439810000000    -0.0286959  
C78      C      0.541210000000     0.422340000000     0.450310000000     0.018091   
C79      C      0.452210000000     0.413600000000     0.460420000000    -0.028681   
C80      C      0.474580000000     0.449870000000     0.469290000000     0.0183595  
C81      C      0.604440000000     0.459440000000     0.455270000000    -0.041435   
C82      C      0.518010000000     0.452940000000     0.464500000000    -0.00544266 
C83      C      0.452010000000     0.480670000000     0.482980000000    -0.0411308  
C84      C      0.472030000000     0.514430000000     0.491550000000    -0.0412116  
C85      C      0.535690000000     0.555150000000     0.496100000000    -0.0287456  
C86      C      0.515170000000     0.518010000000     0.487160000000     0.0182989  
C87      C      0.604660000000     0.526300000000     0.478100000000    -0.0293341  
C88      C      0.538490000000     0.487220000000     0.473710000000    -0.00546733 
C89      C      0.827370000000     0.025840000000     0.205720000000     0.0192152  
C90      C      0.856300000000     0.019300000000     0.267170000000    -0.0409245  
C91      C      0.863330000000     0.956680000000     0.298730000000    -0.0286403  
C92      C      0.851820000000     0.979950000000     0.265490000000     0.0175785  
C93      C      0.844090000000     0.897890000000     0.262100000000    -0.0286997  
C94      C      0.831180000000     0.923630000000     0.230990000000     0.017239   
C95      C      0.844680000000     0.041930000000     0.237490000000    -0.0415878  
C96      C      0.835360000000     0.963140000000     0.233470000000    -0.00496159 
C97      C      0.814070000000     0.907580000000     0.199050000000    -0.0411632  
C98      C      0.801320000000     0.930250000000     0.169750000000    -0.0413495  
C99      C      0.790860000000     0.993390000000     0.139510000000    -0.0291934  
C100     C      0.805260000000     0.969590000000     0.171640000000     0.0184151  
C101     C      0.815910000000     0.050870000000     0.173660000000    -0.0297905  
C102     C      0.822760000000     0.986290000000     0.203410000000    -0.00607064 
C103     C      0.556090000000     0.264640000000     0.245120000000     0.0187085  
C104     C      0.627090000000     0.241320000000     0.242690000000    -0.0407568  
C105     C      0.643770000000     0.172590000000     0.233410000000    -0.0285945  
C106     C      0.612780000000     0.204320000000     0.237610000000     0.0189683  
C107     C      0.584250000000     0.127170000000     0.229090000000    -0.0285878  
C108     C      0.554480000000     0.159970000000     0.231780000000     0.0190375  
C109     C      0.599080000000     0.271130000000     0.246320000000    -0.0410973  
C110     C      0.569550000000     0.197150000000     0.236440000000    -0.00524673 
C111     C      0.511530000000     0.153530000000     0.229920000000    -0.0407715  
C112     C      0.483590000000     0.183540000000     0.232240000000    -0.0409642  
C113     C      0.467090000000     0.252610000000     0.238780000000    -0.028833   
C114     C      0.497920000000     0.220590000000     0.237120000000     0.0186759  
C115     C      0.526660000000     0.297680000000     0.248310000000    -0.0293908  
C116     C      0.541050000000     0.227610000000     0.239540000000    -0.00521802 
C117     C      0.290770000000     0.003870000000     0.776040000000     0.0180634  
C118     C      0.262320000000     0.066980000000     0.768890000000    -0.0412403  
C119     C      0.252190000000     0.097250000000     0.707000000000    -0.0285457  
C120     C      0.265330000000     0.064170000000     0.730450000000     0.0178882  
C121     C      0.271030000000     0.058980000000     0.650510000000    -0.0284215  
C122     C      0.284250000000     0.027410000000     0.675820000000     0.0177329  
C123     C      0.274500000000     0.037070000000     0.791370000000    -0.0415165  
C124     C      0.281250000000     0.030890000000     0.714460000000    -0.00544577 
C125     C      0.300390000000     0.994190000000     0.660480000000    -0.0413687  
C126     C      0.313140000000     0.964520000000     0.683010000000    -0.0414866  
C127     C      0.324270000000     0.934390000000     0.744660000000    -0.0288081  
C128     C      0.310330000000     0.967380000000     0.721480000000     0.0174949  
C129     C      0.301650000000     0.971560000000     0.801280000000    -0.029259   
C130     C      0.294160000000     0.000520000000     0.737460000000    -0.00551946 
C131     C      0.489600000000     0.741690000000     0.754340000000     0.0183961  
C132     C      0.484000000000     0.686340000000     0.715140000000    -0.0411802  
C133     C      0.520410000000     0.681580000000     0.654080000000    -0.0287619  
C134     C      0.510600000000     0.702770000000     0.689070000000     0.0178099  
C135     C      0.566540000000     0.735880000000     0.634860000000    -0.0289024  
C136     C      0.554310000000     0.755900000000     0.669920000000     0.0178032  
C137     C      0.473990000000     0.705390000000     0.747550000000    -0.0414932  
C138     C      0.527080000000     0.739060000000     0.695610000000    -0.00548266 
C139     C      0.570020000000     0.792130000000     0.676770000000    -0.0413047  
C140     C      0.559270000000     0.811500000000     0.708810000000    -0.0413923  
C141     C      0.521700000000     0.817130000000     0.769110000000    -0.028671   
C142     C      0.532390000000     0.795210000000     0.734750000000     0.0177128  
C143     C      0.479510000000     0.760770000000     0.790380000000    -0.0292466  
C144     C      0.516340000000     0.758740000000     0.728430000000    -0.00558797 
C145     C      0.507560000000     0.995500000000     0.949860000000     0.0184022  
C146     C      0.508630000000     0.050560000000     0.989770000000    -0.0411563  
C147     C      0.540860000000     0.049300000000     0.052870000000    -0.0284761  
C148     C      0.529880000000     0.030190000000     0.017020000000     0.0180272  
C149     C      0.574390000000     0.988860000000     0.073980000000    -0.0286841  
C150     C      0.561920000000     0.971100000000     0.037790000000     0.0180832  
C151     C      0.497930000000     0.033510000000     0.956470000000    -0.0415134  
C152     C      0.540210000000     0.992000000000     0.010780000000    -0.00543898 
C153     C      0.571780000000     0.933190000000     0.031090000000    -0.0410821  
C154     C      0.560700000000     0.916070000000     0.997920000000    -0.0413491  
C155     C      0.528230000000     0.916940000000     0.935030000000    -0.0287654  
C156     C      0.539230000000     0.936360000000     0.970720000000     0.0180098  
C157     C      0.496870000000     0.978420000000     0.912970000000    -0.0293197  
C158     C      0.528980000000     0.974540000000     0.976930000000    -0.00554971 
C159     C      0.016160000000     0.716280000000     0.252120000000     0.0182288  
C160     C      0.006410000000     0.668150000000     0.205220000000    -0.0410824  
C161     C      0.051720000000     0.663590000000     0.149080000000    -0.0286787  
C162     C      0.040200000000     0.682230000000     0.185050000000     0.0177928  
C163     C      0.109350000000     0.711730000000     0.142100000000    -0.0288887  
C164     C      0.096370000000     0.728430000000     0.178540000000     0.0181076  
C165     C      0.994710000000     0.684800000000     0.238440000000    -0.0415794  
C166     C      0.062350000000     0.713740000000     0.198440000000    -0.00537018 
C167     C      0.118090000000     0.759660000000     0.192380000000    -0.0412017  
C168     C      0.106600000000     0.776110000000     0.225740000000    -0.0412823  
C169     C      0.061670000000     0.780360000000     0.282050000000    -0.0289877  
C170     C      0.072760000000     0.762050000000     0.245870000000     0.018033   
C171     C      0.003340000000     0.732750000000     0.288740000000    -0.029238   
C172     C      0.050400000000     0.730750000000     0.232360000000    -0.00559567 
C173     C      0.278850000000     0.758150000000     0.920950000000     0.0188869  
C174     C      0.248950000000     0.695250000000     0.918770000000    -0.0410192  
C175     C      0.254210000000     0.649940000000     0.971800000000    -0.0285965  
C176     C      0.262640000000     0.687990000000     0.954760000000     0.0181807  
C177     C      0.290440000000     0.672120000000     0.029490000000    -0.0286084  
C178     C      0.298430000000     0.709400000000     0.010650000000     0.0181412  
C179     C      0.256640000000     0.730040000000     0.902190000000    -0.0413727  
C180     C      0.284640000000     0.716080000000     0.974280000000    -0.00529853 
C181     C      0.320370000000     0.737640000000     0.029490000000    -0.0411586  
C182     C      0.328400000000     0.772300000000     0.012760000000    -0.0411996  
C183     C      0.324070000000     0.817390000000     0.959450000000    -0.0287604  
C184     C      0.314960000000     0.779500000000     0.976680000000     0.0181913  
C185     C      0.285520000000     0.795880000000     0.902690000000    -0.0292323  
C186     C      0.292780000000     0.751450000000     0.957250000000    -0.00556414 
C187     C      0.346590000000     0.465480000000     0.227010000000     0.0187503  
C188     C      0.337990000000     0.484480000000     0.163200000000    -0.041022   
C189     C      0.268020000000     0.497470000000     0.135450000000    -0.0285185  
C190     C      0.294850000000     0.487400000000     0.168020000000     0.0178155  
C191     C      0.205250000000     0.495810000000     0.177870000000    -0.0286014  
C192     C      0.234000000000     0.483210000000     0.208360000000     0.0173102  
C193     C      0.363610000000     0.474140000000     0.192470000000    -0.0415389  
C194     C      0.277220000000     0.479660000000     0.202760000000    -0.00517588 
C195     C      0.217050000000     0.474610000000     0.242970000000    -0.0412562  
C196     C      0.242470000000     0.462790000000     0.271870000000    -0.0414829  
C197     C      0.312010000000     0.446200000000     0.298810000000    -0.0289211  
C198     C      0.285530000000     0.459300000000     0.266910000000     0.0179633  
C199     C      0.375170000000     0.455610000000     0.258480000000    -0.0295097  
C200     C      0.303260000000     0.468190000000     0.232410000000    -0.00580653 
C201     C      0.023220000000     0.208210000000     0.730830000000     0.0183193  
C202     C      0.995660000000     0.210530000000     0.793150000000    -0.0410227  
C203     C      0.989830000000     0.271190000000     0.828760000000    -0.0288184  
C204     C      0.001590000000     0.249690000000     0.794400000000     0.0186271  
C205     C      0.013680000000     0.330880000000     0.797940000000    -0.0286538  
C206     C      0.024760000000     0.308010000000     0.764270000000     0.0183777  
C207     C      0.006070000000     0.190080000000     0.761650000000    -0.0412896  
C208     C      0.018670000000     0.268520000000     0.763590000000    -0.00554854 
C209     C      0.041590000000     0.326200000000     0.733400000000    -0.0412387  
C210     C      0.051930000000     0.305710000000     0.701920000000    -0.0412472  
C211     C      0.056980000000     0.245500000000     0.665890000000    -0.0288484  
C212     C      0.046080000000     0.266510000000     0.700680000000     0.0179451  
C213     C      0.032570000000     0.185330000000     0.696760000000    -0.0292803  
C214     C      0.029370000000     0.247630000000     0.731520000000    -0.0053355  
C215     C      0.703260000000     0.234600000000     0.002070000000     0.0171916  
C216     C      0.707340000000     0.298970000000     0.979100000000    -0.0415555  
C217     C      0.739330000000     0.314990000000     0.917960000000    -0.0286262  
C218     C      0.727460000000     0.286540000000     0.947100000000     0.0181692  
C219     C      0.766490000000     0.261310000000     0.879270000000    -0.0286333  
C220     C      0.754870000000     0.234500000000     0.909870000000     0.0185845  
C221     C      0.695210000000     0.273300000000     0.006130000000    -0.0414127  
C222     C      0.735440000000     0.247650000000     0.942300000000    -0.00585125 
C223     C      0.762470000000     0.195830000000     0.905540000000    -0.0413845  
C224     C      0.751340000000     0.170380000000     0.933090000000    -0.0413611  
C225     C      0.720850000000     0.153850000000     0.994260000000    -0.0281326  
C226     C      0.731970000000     0.182850000000     0.965530000000     0.0166379  
C227     C      0.686610000000     0.208040000000     0.030880000000    -0.02869    
C228     C      0.723550000000     0.221520000000     0.970210000000    -0.00510238 
C229     C      0.772170000000     0.441500000000     0.724570000000     0.0183759  
C230     C      0.706640000000     0.451190000000     0.692700000000    -0.0412075  
C231     C      0.677580000000     0.515660000000     0.680290000000    -0.0288649  
C232     C      0.711340000000     0.490450000000     0.695280000000     0.0181589  
C233     C      0.720480000000     0.572150000000     0.699980000000    -0.0288269  
C234     C      0.752360000000     0.545010000000     0.715140000000     0.0179392  
C235     C      0.736880000000     0.427020000000     0.706840000000    -0.0414448  
C236     C      0.746890000000     0.505590000000     0.712540000000    -0.00537757 
C237     C      0.787810000000     0.559460000000     0.732670000000    -0.0413242  
C238     C      0.817770000000     0.535280000000     0.747290000000    -0.041301   
C239     C      0.846090000000     0.470780000000     0.761050000000    -0.0289234  
C240     C      0.812920000000     0.496030000000     0.744980000000     0.0179482  
C241     C      0.804920000000     0.414570000000     0.738480000000    -0.0293629  
C242     C      0.777530000000     0.480910000000     0.727360000000    -0.00559043 
C243     C      0.982800000000     0.429200000000     0.984980000000     0.0197294  
C244     C      0.056370000000     0.431480000000     0.999650000000    -0.0406993  
C245     C      0.097980000000     0.491320000000     0.995490000000    -0.0284537  
C246     C      0.057340000000     0.470380000000     0.992490000000     0.0181238  
C247     C      0.060180000000     0.551280000000     0.978510000000    -0.0282866  
C248     C      0.020820000000     0.528380000000     0.974800000000     0.017812   
C249     C      0.019430000000     0.411190000000     0.996290000000    -0.0412583  
C250     C      0.020590000000     0.489170000000     0.981750000000    -0.00472188 
C251     C      0.984040000000     0.546400000000     0.963730000000    -0.0409165  
C252     C      0.947230000000     0.526000000000     0.959660000000    -0.0410329  
C253     C      0.906260000000     0.465460000000     0.961320000000    -0.0287797  
C254     C      0.946360000000     0.487070000000     0.966420000000     0.019017   
C255     C      0.943040000000     0.406880000000     0.981870000000    -0.0293929  
C256     C      0.983050000000     0.468440000000     0.977880000000    -0.00584674 
Cd1      Cd     0.873830000000     0.367750000000     0.858930000000     0.507733   
Cd2      Cd     0.166670000000     0.592870000000     0.077290000000     0.507182   
Cd3      Cd     0.407390000000     0.875090000000     0.851070000000     0.507445   
Cd4      Cd     0.675910000000     0.093610000000     0.116480000000     0.50662    
Cd5      Cd     0.414290000000     0.342040000000     0.340940000000     0.508066   
Cd6      Cd     0.641350000000     0.617710000000     0.584110000000     0.507477   
Cd7      Cd     0.950660000000     0.851070000000     0.357930000000     0.506534   
Cd8      Cd     0.148880000000     0.142350000000     0.607530000000     0.506739   
H1       H      0.074080000000     0.024480000000     0.581900000000     0.0565085  
H2       H      0.092610000000     0.940780000000     0.394190000000     0.04609    
H3       H      0.038280000000     0.091340000000     0.501110000000     0.0466457  
H4       H      0.031300000000     0.883010000000     0.467170000000     0.0560759  
H5       H      0.070740000000     0.023160000000     0.384790000000     0.0427127  
H6       H      0.074640000000     0.076910000000     0.426900000000     0.0423854  
H7       H      0.091710000000     0.098410000000     0.490040000000     0.0565793  
H8       H      0.044720000000     0.958120000000     0.375070000000     0.0572315  
H9       H      0.049570000000     0.959320000000     0.571920000000     0.042779   
H10      H      0.026370000000     0.040940000000     0.562630000000     0.0469037  
H11      H      0.046620000000     0.905480000000     0.529880000000     0.0424722  
H12      H      0.083570000000     0.892890000000     0.453680000000     0.0456803  
H13      H      0.919150000000     0.761500000000     0.456800000000     0.0566223  
H14      H      0.705870000000     0.686090000000     0.461000000000     0.0473567  
H15      H      0.833830000000     0.838680000000     0.472420000000     0.0464468  
H16      H      0.781750000000     0.648530000000     0.538860000000     0.0565153  
H17      H      0.697940000000     0.770840000000     0.458400000000     0.0426399  
H18      H      0.747990000000     0.819990000000     0.442180000000     0.0424706  
H19      H      0.819810000000     0.835230000000     0.424910000000     0.0555945  
H20      H      0.682970000000     0.714910000000     0.496270000000     0.0566661  
H21      H      0.905220000000     0.707430000000     0.498640000000     0.0424032  
H22      H      0.901010000000     0.791030000000     0.493190000000     0.0463921  
H23      H      0.854940000000     0.659300000000     0.517130000000     0.0425     
H24      H      0.772650000000     0.637620000000     0.491660000000     0.0476482  
H25      H      0.286740000000     0.270000000000     0.361040000000     0.0568974  
H26      H      0.267980000000     0.253930000000     0.563280000000     0.0459207  
H27      H      0.361680000000     0.198120000000     0.403760000000     0.0448581  
H28      H      0.167940000000     0.232720000000     0.507420000000     0.0569902  
H29      H      0.346170000000     0.209880000000     0.541720000000     0.0424992  
H30      H      0.387320000000     0.210470000000     0.485040000000     0.0428292  
H31      H      0.395030000000     0.234020000000     0.421810000000     0.0559392  
H32      H      0.276960000000     0.204330000000     0.569990000000     0.0561383  
H33      H      0.216730000000     0.261970000000     0.388280000000     0.0428591  
H34      H      0.295350000000     0.220330000000     0.365120000000     0.0450066  
H35      H      0.175230000000     0.259870000000     0.444750000000     0.0425882  
H36      H      0.197110000000     0.271880000000     0.524450000000     0.045914   
H37      H      0.419710000000     0.419560000000     0.451640000000     0.0561142  
H38      H      0.609540000000     0.541840000000     0.451830000000     0.0461782  
H39      H      0.523880000000     0.365930000000     0.463370000000     0.0456503  
H40      H      0.519250000000     0.568980000000     0.519490000000     0.0564638  
H41      H      0.637770000000     0.461500000000     0.451350000000     0.042677   
H42      H      0.602520000000     0.402620000000     0.435240000000     0.0427079  
H43      H      0.536480000000     0.372700000000     0.415870000000     0.0567501  
H44      H      0.635830000000     0.519530000000     0.489680000000     0.0566898  
H45      H      0.418690000000     0.478610000000     0.486920000000     0.0427523  
H46      H      0.450260000000     0.396910000000     0.486320000000     0.0454781  
H47      H      0.453750000000     0.537920000000     0.501720000000     0.0426783  
H48      H      0.531820000000     0.573960000000     0.471810000000     0.0463871  
H49      H      0.859500000000     0.872370000000     0.250500000000     0.0560129  
H50      H      0.844260000000     0.055010000000     0.156590000000     0.0461777  
H51      H      0.837110000000     0.958270000000     0.318650000000     0.048394   
H52      H      0.762940000000     0.980430000000     0.126540000000     0.0570437  
H53      H      0.848920000000     0.072210000000     0.239440000000     0.043038   
H54      H      0.868850000000     0.032590000000     0.291670000000     0.0425699  
H55      H      0.890680000000     0.969570000000     0.312730000000     0.0564069  
H56      H      0.805920000000     0.079050000000     0.183910000000     0.0570467  
H57      H      0.810470000000     0.877240000000     0.196850000000     0.0425154  
H58      H      0.815450000000     0.887690000000     0.276080000000     0.0483598  
H59      H      0.788190000000     0.917010000000     0.145460000000     0.0426695  
H60      H      0.815910000000     0.992970000000     0.118390000000     0.0459449  
H61      H      0.570480000000     0.103870000000     0.212550000000     0.0556814  
H62      H      0.524850000000     0.311570000000     0.220880000000     0.0460701  
H63      H      0.653150000000     0.163620000000     0.261580000000     0.0446192  
H64      H      0.437160000000     0.242670000000     0.250720000000     0.056093   
H65      H      0.611020000000     0.299490000000     0.250040000000     0.0428499  
H66      H      0.660150000000     0.247170000000     0.243750000000     0.0430402  
H67      H      0.672400000000     0.182770000000     0.219350000000     0.0569456  
H68      H      0.539400000000     0.318620000000     0.268180000000     0.0575791  
H69      H      0.499580000000     0.125150000000     0.226420000000     0.0427636  
H70      H      0.589090000000     0.116160000000     0.257470000000     0.0447856  
H71      H      0.450560000000     0.177810000000     0.230230000000     0.0427207  
H72      H      0.460510000000     0.261490000000     0.209970000000     0.0460288  
H73      H      0.257180000000     0.046980000000     0.624940000000     0.0564232  
H74      H      0.272400000000     0.956760000000     0.808910000000     0.0480057  
H75      H      0.278440000000     0.117660000000     0.706370000000     0.0469361  
H76      H      0.353190000000     0.922220000000     0.732650000000     0.0562187  
H77      H      0.271200000000     0.039840000000     0.820980000000     0.0426329  
H78      H      0.250260000000     0.092420000000     0.781570000000     0.042681   
H79      H      0.225560000000     0.112070000000     0.720220000000     0.056403   
H80      H      0.315460000000     0.983020000000     0.827110000000     0.0565012  
H81      H      0.303120000000     0.991200000000     0.630850000000     0.0425584  
H82      H      0.299480000000     0.074470000000     0.641910000000     0.0467665  
H83      H      0.325320000000     0.939120000000     0.670340000000     0.0425691  
H84      H      0.300220000000     0.911940000000     0.742580000000     0.0481654  
H85      H      0.599330000000     0.742830000000     0.627740000000     0.0566372  
H86      H      0.501160000000     0.749720000000     0.811700000000     0.0473822  
H87      H      0.494630000000     0.686840000000     0.634330000000     0.0469064  
H88      H      0.518080000000     0.847550000000     0.762120000000     0.0562499  
H89      H      0.453850000000     0.691750000000     0.767460000000     0.042794   
H90      H      0.471060000000     0.658500000000     0.710450000000     0.0426091  
H91      H      0.520770000000     0.650670000000     0.659570000000     0.0561999  
H92      H      0.447340000000     0.753100000000     0.798900000000     0.0568342  
H93      H      0.590760000000     0.805500000000     0.657170000000     0.0425968  
H94      H      0.546960000000     0.747310000000     0.612210000000     0.0466727  
H95      H      0.572010000000     0.839430000000     0.713410000000     0.0424642  
H96      H      0.548660000000     0.815250000000     0.788210000000     0.046628   
H97      H      0.604200000000     0.976510000000     0.083840000000     0.056897   
H98      H      0.521570000000     0.986550000000     0.893050000000     0.0469189  
H99      H      0.513300000000     0.047150000000     0.071260000000     0.0454932  
H100     H      0.520100000000     0.886930000000     0.940550000000     0.056457   
H101     H      0.481990000000     0.050080000000     0.935720000000     0.0426758  
H102     H      0.500450000000     0.079880000000     0.994240000000     0.0423923  
H103     H      0.546560000000     0.079920000000     0.048240000000     0.0557928  
H104     H      0.467010000000     0.990520000000     0.902930000000     0.0568926  
H105     H      0.588240000000     0.916760000000     0.051640000000     0.0426132  
H106     H      0.550280000000     0.981310000000     0.094670000000     0.0458149  
H107     H      0.568970000000     0.886770000000     0.993410000000     0.0424961  
H108     H      0.556580000000     0.916550000000     0.917490000000     0.0463057  
H109     H      0.143680000000     0.714020000000     0.138860000000     0.056592   
H110     H      0.016630000000     0.714780000000     0.310940000000     0.0474676  
H111     H      0.030050000000     0.674200000000     0.127570000000     0.0469465  
H112     H      0.067240000000     0.811320000000     0.280290000000     0.0562022  
H113     H      0.968700000000     0.673060000000     0.253590000000     0.0428352  
H114     H      0.989020000000     0.644020000000     0.195210000000     0.0426302  
H115     H      0.046450000000     0.632600000000     0.151100000000     0.0565897  
H116     H      0.968860000000     0.731580000000     0.291250000000     0.0568828  
H117     H      0.144160000000     0.771360000000     0.177280000000     0.0427147  
H118     H      0.095330000000     0.729230000000     0.119900000000     0.0469147  
H119     H      0.124200000000     0.800040000000     0.235900000000     0.0426187  
H120     H      0.083400000000     0.769380000000     0.303330000000     0.0468733  
H121     H      0.285830000000     0.676600000000     0.059580000000     0.0569023  
H122     H      0.257170000000     0.813230000000     0.907260000000     0.045827   
H123     H      0.279130000000     0.630410000000     0.962440000000     0.0458277  
H124     H      0.354780000000     0.827970000000     0.969130000000     0.0565095  
H125     H      0.245270000000     0.735030000000     0.874490000000     0.0427952  
H126     H      0.232100000000     0.673900000000     0.903460000000     0.0425106  
H127     H      0.224320000000     0.638360000000     0.961240000000     0.0559962  
H128     H      0.289180000000     0.791910000000     0.872440000000     0.0567523  
H129     H      0.331310000000     0.732810000000     0.057350000000     0.0427252  
H130     H      0.318920000000     0.654610000000     0.026410000000     0.0461915  
H131     H      0.345270000000     0.793660000000     0.028060000000     0.04264    
H132     H      0.300310000000     0.837660000000     0.969630000000     0.0460223  
H133     H      0.181170000000     0.515080000000     0.189370000000     0.0561105  
H134     H      0.385900000000     0.482380000000     0.271320000000     0.0466991  
H135     H      0.262240000000     0.471160000000     0.119550000000     0.0476205  
H136     H      0.295050000000     0.424200000000     0.314740000000     0.0569655  
H137     H      0.396910000000     0.472650000000     0.188080000000     0.0427509  
H138     H      0.351940000000     0.490310000000     0.136600000000     0.0425221  
H139     H      0.285290000000     0.516870000000     0.116780000000     0.0560652  
H140     H      0.403040000000     0.440610000000     0.247700000000     0.0564197  
H141     H      0.183860000000     0.477000000000     0.247610000000     0.042482   
H142     H      0.188350000000     0.470550000000     0.167540000000     0.0476618  
H143     H      0.228460000000     0.456300000000     0.298280000000     0.0425594  
H144     H      0.316320000000     0.470560000000     0.317750000000     0.0464453  
H145     H      0.003930000000     0.359850000000     0.789860000000     0.0558344  
H146     H      0.003000000000     0.181170000000     0.681410000000     0.0469642  
H147     H      0.016570000000     0.269480000000     0.848110000000     0.0454819  
H148     H      0.084950000000     0.258470000000     0.652990000000     0.0561393  
H149     H      0.000670000000     0.159890000000     0.761290000000     0.0428657  
H150     H      0.982660000000     0.195730000000     0.816620000000     0.0430002  
H151     H      0.962970000000     0.257440000000     0.842660000000     0.0571745  
H152     H      0.044230000000     0.156980000000     0.705030000000     0.0567394  
H153     H      0.046580000000     0.356450000000     0.733610000000     0.0425635  
H154     H      0.042380000000     0.333880000000     0.814780000000     0.0451645  
H155     H      0.064540000000     0.320570000000     0.678310000000     0.0423656  
H156     H      0.030980000000     0.249450000000     0.646060000000     0.0466602  
H157     H      0.740580000000     0.261270000000     0.858980000000     0.0454692  
H158     H      0.652210000000     0.206650000000     0.027940000000     0.0507377  
H159     H      0.748590000000     0.342070000000     0.931160000000     0.0562819  
H160     H      0.748920000000     0.136590000000     0.000510000000     0.0542509  
H161     H      0.679020000000     0.283680000000     0.030300000000     0.0424284  
H162     H      0.700570000000     0.328670000000     0.983000000000     0.0425311  
H163     H      0.711090000000     0.321010000000     0.901290000000     0.0453598  
H164     H      0.693100000000     0.220070000000     0.058670000000     0.0555339  
H165     H      0.777080000000     0.185270000000     0.880670000000     0.0427766  
H166     H      0.794540000000     0.250800000000     0.864520000000     0.0573054  
H167     H      0.757770000000     0.140630000000     0.929050000000     0.0423255  
H168     H      0.698120000000     0.133730000000     0.982060000000     0.0503425  
H169     H      0.736420000000     0.597390000000     0.688400000000     0.0565313  
H170     H      0.825280000000     0.406840000000     0.714900000000     0.0467857  
H171     H      0.652620000000     0.517390000000     0.701410000000     0.0470175  
H172     H      0.858800000000     0.483730000000     0.786630000000     0.0569543  
H173     H      0.732640000000     0.396810000000     0.704050000000     0.0426367  
H174     H      0.679420000000     0.439170000000     0.679570000000     0.0427551  
H175     H      0.663380000000     0.502430000000     0.655460000000     0.0566933  
H176     H      0.789760000000     0.388260000000     0.748520000000     0.0562638  
H177     H      0.792310000000     0.589680000000     0.735050000000     0.0426643  
H178     H      0.701260000000     0.582350000000     0.723430000000     0.0469227  
H179     H      0.844910000000     0.547290000000     0.760560000000     0.0425243  
H180     H      0.872200000000     0.469530000000     0.741000000000     0.0466492  
H181     H      0.052660000000     0.580060000000     0.988860000000     0.0562082  
H182     H      0.927840000000     0.406930000000     0.009400000000     0.0452451  
H183     H      0.114700000000     0.487800000000     0.968880000000     0.0462374  
H184     H      0.887330000000     0.478210000000     0.938880000000     0.0569261  
H185     H      0.019500000000     0.381220000000     0.002240000000     0.0433544  
H186     H      0.084400000000     0.416740000000     0.007870000000     0.0426665  
H187     H      0.117830000000     0.478250000000     0.017130000000     0.055907   
H188     H      0.949890000000     0.377050000000     0.974450000000     0.0566868  
H189     H      0.983860000000     0.576440000000     0.958120000000     0.0425222  
H190     H      0.073500000000     0.554910000000     0.950460000000     0.0463659  
H191     H      0.919300000000     0.540660000000     0.951030000000     0.0429654  
H192     H      0.888040000000     0.468350000000     0.987210000000     0.0449739  
N1       N      0.038960000000     0.916350000000     0.417750000000    -0.14936    
N2       N      0.079380000000     0.066950000000     0.539680000000    -0.14962    
N3       N      0.727770000000     0.674230000000     0.514610000000    -0.14928    
N4       N      0.873940000000     0.803680000000     0.441670000000    -0.149662   
N5       N      0.219560000000     0.219330000000     0.543200000000    -0.149384   
N6       N      0.343650000000     0.253060000000     0.388100000000    -0.149905   
N7       N      0.580440000000     0.550380000000     0.503310000000    -0.149769   
N8       N      0.475640000000     0.391610000000     0.432980000000    -0.149868   
N9       N      0.783680000000     0.032770000000     0.150880000000    -0.149076   
N10      N      0.870750000000     0.916730000000     0.289560000000    -0.149159   
N11      N      0.484720000000     0.284960000000     0.258890000000    -0.14936    
N12      N      0.624410000000     0.140290000000     0.214510000000    -0.149975   
N13      N      0.329970000000     0.944210000000     0.783800000000    -0.149384   
N14      N      0.242720000000     0.085680000000     0.668920000000    -0.149429   
N15      N      0.484670000000     0.802010000000     0.787930000000    -0.149562   
N16      N      0.559510000000     0.694870000000     0.637420000000    -0.149388   
N17      N      0.494990000000     0.936940000000     0.915030000000    -0.149356   
N18      N      0.576170000000     0.030250000000     0.070790000000    -0.149368   
N19      N      0.018790000000     0.771590000000     0.293500000000    -0.149689   
N20      N      0.094600000000     0.672620000000     0.137860000000    -0.14947    
N21      N      0.321420000000     0.815580000000     0.918960000000    -0.14985    
N22      N      0.255340000000     0.652040000000     0.012310000000    -0.149442   
N23      N      0.353210000000     0.433100000000     0.286500000000    -0.149482   
N24      N      0.227680000000     0.513310000000     0.146850000000    -0.149771   
N25      N      0.062430000000     0.204770000000     0.672530000000    -0.149952   
N26      N      0.982060000000     0.311150000000     0.820030000000    -0.149797   
N27      N      0.703480000000     0.169430000000     0.028630000000    -0.149907   
N28      N      0.771790000000     0.299970000000     0.893390000000    -0.14946    
N29      N      0.830630000000     0.432160000000     0.767350000000    -0.149333   
N30      N      0.692910000000     0.554080000000     0.672770000000    -0.149513   
N31      N      0.915230000000     0.425230000000     0.955110000000    -0.149803   
N32      N      0.091020000000     0.531890000000     0.001790000000    -0.149957   
O1       O      0.868060000000     0.425480000000     0.821130000000    -0.245993   
O2       O      0.831810000000     0.309790000000     0.860180000000    -0.245622   
O3       O      0.878030000000     0.422510000000     0.900910000000    -0.246325   
O4       O      0.940430000000     0.363770000000     0.825370000000    -0.253496   
O5       O      0.920110000000     0.312750000000     0.851790000000    -0.24572    
O6       O      0.911010000000     0.372730000000     0.917950000000    -0.253364   
O7       O      0.833770000000     0.377440000000     0.801630000000    -0.25329    
O8       O      0.808770000000     0.355700000000     0.893110000000    -0.252727   
O9       O      0.197030000000     0.614920000000     0.018900000000    -0.251323   
O10      O      0.172350000000     0.552050000000     0.132550000000    -0.251294   
O11      O      0.111060000000     0.586820000000     0.030800000000    -0.248644   
O12      O      0.104890000000     0.613740000000     0.112430000000    -0.249162   
O13      O      0.153830000000     0.654540000000     0.106830000000    -0.250789   
O14      O      0.143030000000     0.535620000000     0.045240000000    -0.253184   
O15      O      0.228420000000     0.633030000000     0.068170000000    -0.245182   
O16      O      0.224990000000     0.552300000000     0.096160000000    -0.251427   
O17      O      0.358220000000     0.927300000000     0.839820000000    -0.249469   
O18      O      0.464290000000     0.861020000000     0.807620000000    -0.250959   
O19      O      0.346770000000     0.834190000000     0.862460000000    -0.251523   
O20      O      0.439780000000     0.933550000000     0.874590000000    -0.248737   
O21      O      0.465420000000     0.881470000000     0.894810000000    -0.249975   
O22      O      0.378930000000     0.853470000000     0.910770000000    -0.250827   
O23      O      0.378150000000     0.896730000000     0.791800000000    -0.250596   
O24      O      0.429830000000     0.813120000000     0.827360000000    -0.250262   
O25      O      0.638090000000     0.034660000000     0.102580000000    -0.243578   
O26      O      0.674160000000     0.137990000000     0.168930000000    -0.24576    
O27      O      0.707090000000     0.110950000000     0.056350000000    -0.254463   
O28      O      0.721610000000     0.037340000000     0.119360000000    -0.245352   
O29      O      0.743230000000     0.086370000000     0.148340000000    -0.251281   
O30      O      0.677380000000     0.155830000000     0.086200000000    -0.249764   
O31      O      0.610000000000     0.086090000000     0.083180000000    -0.251379   
O32      O      0.625290000000     0.096720000000     0.167450000000    -0.253114   
O33      O      0.350700000000     0.304160000000     0.349320000000    -0.245848   
O34      O      0.475530000000     0.355670000000     0.380020000000    -0.247153   
O35      O      0.354830000000     0.384510000000     0.328710000000    -0.246359   
O36      O      0.425120000000     0.294190000000     0.292870000000    -0.252791   
O37      O      0.476880000000     0.331200000000     0.303050000000    -0.244678   
O38      O      0.409260000000     0.393730000000     0.295660000000    -0.25382    
O39      O      0.404090000000     0.287000000000     0.380900000000    -0.253282   
O40      O      0.417760000000     0.380350000000     0.397370000000    -0.253887   
O41      O      0.619170000000     0.680890000000     0.604990000000    -0.248566   
O42      O      0.638630000000     0.569270000000     0.535390000000    -0.251821   
O43      O      0.686840000000     0.608630000000     0.638480000000    -0.250712   
O44      O      0.661930000000     0.664600000000     0.537710000000    -0.249847   
O45      O      0.711680000000     0.631030000000     0.559990000000    -0.248366   
O46      O      0.651090000000     0.560420000000     0.621620000000    -0.251717   
O47      O      0.578920000000     0.634930000000     0.619810000000    -0.249223   
O48      O      0.580260000000     0.594910000000     0.549580000000    -0.249513   
O49      O      0.934860000000     0.806690000000     0.408390000000    -0.24638    
O50      O      0.917130000000     0.910030000000     0.337550000000    -0.247248   
O51      O      0.961010000000     0.789600000000     0.326760000000    -0.249872   
O52      O      0.000380000000     0.903730000000     0.365610000000    -0.244889   
O53      O      0.992750000000     0.867050000000     0.412300000000    -0.250968   
O54      O      0.010170000000     0.830010000000     0.320280000000    -0.253913   
O55      O      0.885790000000     0.845030000000     0.393780000000    -0.253101   
O56      O      0.902140000000     0.860600000000     0.305840000000    -0.250744   
O57      O      0.189540000000     0.128980000000     0.663600000000    -0.250182   
O58      O      0.158350000000     0.189260000000     0.558200000000    -0.24283    
O59      O      0.093280000000     0.149050000000     0.654390000000    -0.250767   
O60      O      0.108280000000     0.084310000000     0.595280000000    -0.250545   
O61      O      0.118320000000     0.120660000000     0.548850000000    -0.249651   
O62      O      0.115310000000     0.200450000000     0.630020000000    -0.253144   
O63      O      0.204730000000     0.095570000000     0.615920000000    -0.249543   
O64      O      0.212960000000     0.175490000000     0.589690000000    -0.251266   


