data_structure

_audit_creation_method RASPA-1.0
_audit_creation_date 2023-6-5
_audit_author_name 'Poobodin Mano'

_cell_length_a    40.3166
_cell_length_b    39.7322
_cell_length_c    25.7212
_cell_angle_alpha 90.0435
_cell_angle_beta  89.872
_cell_angle_gamma 90.0001
_cell_volume      41201.8

_symmetry_cell_setting          triclinic
_symmetry_space_group_name_Hall 'P 1'
_symmetry_space_group_name_H-M  'P 1'
_symmetry_Int_Tables_number     1

_symmetry_equiv_pos_as_xyz 'x,y,z'

loop_
_atom_site_label
_atom_site_type_symbol
_atom_site_fract_x
_atom_site_fract_y
_atom_site_fract_z
_atom_site_charge
C1       C      0.370640000000     0.356630000000     0.028550000000     0.340754   
C2       C      0.466520000000     0.342680000000     0.919930000000     0.342432   
C3       C      0.358950000000     0.345040000000     0.849810000000     0.340114   
C4       C      0.407560000000     0.444390000000     0.914870000000     0.340102   
C5       C      0.332560000000     0.767600000000     0.068700000000     0.339272   
C6       C      0.355140000000     0.674810000000     0.972720000000     0.337757   
C7       C      0.315020000000     0.781310000000     0.892150000000     0.338573   
C8       C      0.421350000000     0.767450000000     0.930490000000     0.340305   
C9       C      0.701210000000     0.342320000000     0.954930000000     0.339221   
C10      C      0.807700000000     0.357310000000     0.888820000000     0.342243   
C11      C      0.760570000000     0.439580000000     0.006230000000     0.342748   
C12      C      0.795500000000     0.335480000000     0.066090000000     0.340892   
C13      C      0.729530000000     0.672400000000     0.925860000000     0.339498   
C14      C      0.761370000000     0.766540000000     0.826660000000     0.339465   
C15      C      0.656810000000     0.767700000000     0.894320000000     0.341801   
C16      C      0.750040000000     0.769590000000     0.012220000000     0.340218   
C17      C      0.832590000000     0.234200000000     0.584320000000     0.341908   
C18      C      0.862970000000     0.142560000000     0.473930000000     0.341841   
C19      C      0.825850000000     0.245500000000     0.403620000000     0.341017   
C20      C      0.930610000000     0.237890000000     0.481040000000     0.339982   
C21      C      0.940610000000     0.846910000000     0.462900000000     0.343007   
C22      C      0.829210000000     0.836470000000     0.489920000000     0.337538   
C23      C      0.863020000000     0.918390000000     0.367690000000     0.341949   
C24      C      0.869630000000     0.810790000000     0.319950000000     0.339089   
C25      C      0.272170000000     0.894550000000     0.371730000000     0.343244   
C26      C      0.172190000000     0.896380000000     0.464670000000     0.336638   
C27      C      0.271100000000     0.873050000000     0.557640000000     0.341942   
C28      C      0.252020000000     0.981510000000     0.485530000000     0.338949   
C29      C      0.239060000000     0.320760000000     0.336480000000     0.341236   
C30      C      0.221980000000     0.220340000000     0.438110000000     0.339162   
C31      C      0.267390000000     0.318120000000     0.513140000000     0.34163    
C32      C      0.153300000000     0.313740000000     0.455200000000     0.341563   
C33      C      0.271160000000     0.067840000000     0.447600000000     0.0182124  
C34      C      0.277730000000     0.116490000000     0.391520000000    -0.0413849  
C35      C      0.241630000000     0.167600000000     0.398570000000    -0.0288121  
C36      C      0.251650000000     0.133070000000     0.416990000000     0.0176003  
C37      C      0.196610000000     0.167410000000     0.467860000000    -0.0287616  
C38      C      0.208700000000     0.133150000000     0.484360000000     0.0176552  
C39      C      0.287500000000     0.084370000000     0.406840000000    -0.0415306  
C40      C      0.235080000000     0.117010000000     0.458390000000    -0.00535922 
C41      C      0.192650000000     0.116760000000     0.525590000000    -0.0413884  
C42      C      0.202620000000     0.084780000000     0.541280000000    -0.0414143  
C43      C      0.238870000000     0.033620000000     0.533790000000    -0.0288593  
C44      C      0.228620000000     0.068180000000     0.515700000000     0.0180559  
C45      C      0.282890000000     0.033410000000     0.463940000000    -0.0292566  
C46      C      0.245070000000     0.084220000000     0.474070000000    -0.00576694 
C47      C      0.027690000000     0.828420000000     0.465830000000     0.0189625  
C48      C      0.081900000000     0.818370000000     0.427800000000    -0.0411136  
C49      C      0.127550000000     0.861050000000     0.429780000000    -0.0287787  
C50      C      0.092810000000     0.850270000000     0.443720000000     0.0173201  
C51      C      0.115190000000     0.917280000000     0.473650000000    -0.0288256  
C52      C      0.081370000000     0.903780000000     0.487300000000     0.0175311  
C53      C      0.049810000000     0.807510000000     0.438930000000    -0.041406   
C54      C      0.071070000000     0.871540000000     0.471340000000    -0.00497202 
C55      C      0.059370000000     0.924470000000     0.515030000000    -0.0412014  
C56      C      0.027460000000     0.913440000000     0.527040000000    -0.0412571  
C57      C      0.981890000000     0.870320000000     0.524160000000    -0.0286699  
C58      C      0.016600000000     0.881630000000     0.510950000000     0.0189031  
C59      C      0.993130000000     0.815930000000     0.477700000000    -0.0292444  
C60      C      0.038370000000     0.860410000000     0.482980000000    -0.00586833 
C61      C      0.832190000000     0.057070000000     0.446110000000     0.0179139  
C62      C      0.799360000000     0.010640000000     0.412350000000    -0.0409176  
C63      C      0.823930000000     0.965790000000     0.354670000000    -0.0284402  
C64      C      0.827020000000     0.997910000000     0.385800000000     0.0189334  
C65      C      0.883450000000     0.971530000000     0.329120000000    -0.0283613  
C66      C      0.885860000000     0.002770000000     0.362150000000     0.0197506  
C67      C      0.801950000000     0.039810000000     0.442240000000    -0.0412852  
C68      C      0.857680000000     0.015090000000     0.388890000000    -0.00552229 
C69      C      0.916190000000     0.019690000000     0.366440000000    -0.0406213  
C70      C      0.918920000000     0.048260000000     0.397540000000    -0.0408797  
C71      C      0.895480000000     0.091010000000     0.459210000000    -0.0286705  
C72      C      0.891270000000     0.060870000000     0.424390000000     0.0182727  
C73      C      0.834170000000     0.087880000000     0.480350000000    -0.0290514  
C74      C      0.860380000000     0.044540000000     0.419900000000    -0.00487644 
C75      C      0.008800000000     0.273270000000     0.427170000000     0.0176517  
C76      C      0.049340000000     0.305640000000     0.378200000000    -0.0411828  
C77      C      0.098980000000     0.332190000000     0.420690000000    -0.0286467  
C78      C      0.067560000000     0.311690000000     0.423520000000     0.0187891  
C79      C      0.106720000000     0.323550000000     0.516400000000    -0.0285412  
C80      C      0.074610000000     0.304030000000     0.517450000000     0.0186381  
C81      C      0.020510000000     0.286360000000     0.379930000000    -0.0412752  
C82      C      0.056260000000     0.298620000000     0.471450000000    -0.00585525 
C83      C      0.062880000000     0.291100000000     0.564660000000    -0.0413703  
C84      C      0.033510000000     0.272650000000     0.566450000000    -0.0413598  
C85      C      0.983680000000     0.246340000000     0.525350000000    -0.0285442  
C86      C      0.015130000000     0.266680000000     0.521140000000     0.0168422  
C87      C      0.978930000000     0.250560000000     0.426470000000    -0.0289245  
C88      C      0.026510000000     0.279450000000     0.473270000000    -0.00513614 
C89      C      0.793640000000     0.763400000000     0.694360000000     0.0183865  
C90      C      0.795740000000     0.749570000000     0.602470000000    -0.041113   
C91      C      0.793870000000     0.793930000000     0.533030000000    -0.0289778  
C92      C      0.794060000000     0.783750000000     0.589430000000     0.0184314  
C93      C      0.791700000000     0.854530000000     0.560990000000    -0.0287756  
C94      C      0.790930000000     0.842810000000     0.616780000000     0.0179113  
C95      C      0.795880000000     0.739540000000     0.654340000000    -0.041295   
C96      C      0.792170000000     0.808210000000     0.629170000000    -0.0056694  
C97      C      0.788800000000     0.866650000000     0.656810000000    -0.0413861  
C98      C      0.788190000000     0.856530000000     0.708680000000    -0.0414346  
C99      C      0.789000000000     0.812370000000     0.778390000000    -0.0287103  
C100     C      0.789580000000     0.822320000000     0.721790000000     0.0174072  
C101     C      0.795310000000     0.751830000000     0.750010000000    -0.0293078  
C102     C      0.791830000000     0.797930000000     0.682050000000    -0.00553202 
C103     C      0.772870000000     0.769570000000     0.150000000000     0.0183958  
C104     C      0.787930000000     0.748650000000     0.235470000000    -0.0408623  
C105     C      0.842760000000     0.762160000000     0.276940000000    -0.028859   
C106     C      0.818670000000     0.764960000000     0.232390000000     0.0187364  
C107     C      0.882500000000     0.798680000000     0.227580000000    -0.0289207  
C108     C      0.857640000000     0.800580000000     0.183900000000     0.0185433  
C109     C      0.765200000000     0.751150000000     0.194920000000    -0.0412689  
C110     C      0.826830000000     0.783770000000     0.187560000000    -0.0056332  
C111     C      0.865230000000     0.819190000000     0.139210000000    -0.0411992  
C112     C      0.842500000000     0.821550000000     0.098640000000    -0.0411485  
C113     C      0.787610000000     0.808830000000     0.057300000000    -0.0287706  
C114     C      0.811750000000     0.805160000000     0.101600000000     0.0177937  
C115     C      0.747110000000     0.772850000000     0.107930000000    -0.0293944  
C116     C      0.803690000000     0.786170000000     0.146160000000    -0.00528586 
C117     C      0.845020000000     0.299590000000     0.802280000000     0.0191492  
C118     C      0.851860000000     0.243750000000     0.765450000000    -0.0408435  
C119     C      0.827010000000     0.227230000000     0.679580000000    -0.028328   
C120     C      0.833200000000     0.252890000000     0.721760000000     0.0181024  
C121     C      0.793240000000     0.270610000000     0.632180000000    -0.0285693  
C122     C      0.801140000000     0.295510000000     0.674600000000     0.0185648  
C123     C      0.857820000000     0.266860000000     0.805140000000    -0.0412288  
C124     C      0.820250000000     0.285840000000     0.718020000000    -0.00496296 
C125     C      0.788790000000     0.328420000000     0.671330000000    -0.0407942  
C126     C      0.795330000000     0.351760000000     0.710470000000    -0.0409203  
C127     C      0.820630000000     0.368160000000     0.796200000000    -0.0287134  
C128     C      0.813980000000     0.342580000000     0.754110000000     0.0193087  
C129     C      0.852040000000     0.324290000000     0.845480000000    -0.0292079  
C130     C      0.826570000000     0.309480000000     0.758190000000    -0.00569284 
C131     C      0.813740000000     0.306900000000     0.303040000000     0.0192133  
C132     C      0.831450000000     0.348940000000     0.240500000000    -0.0409238  
C133     C      0.830760000000     0.338310000000     0.144310000000    -0.0286276  
C134     C      0.824100000000     0.327110000000     0.199280000000     0.0181639  
C135     C      0.808300000000     0.282710000000     0.112760000000    -0.0283735  
C136     C      0.803280000000     0.272620000000     0.168770000000     0.0177713  
C137     C      0.826010000000     0.339070000000     0.291770000000    -0.0413187  
C138     C      0.811220000000     0.294800000000     0.209780000000    -0.00508778 
C139     C      0.790840000000     0.240510000000     0.180120000000    -0.0410801  
C140     C      0.786050000000     0.230360000000     0.231450000000    -0.0413259  
C141     C      0.788390000000     0.240270000000     0.327900000000    -0.0286951  
C142     C      0.793710000000     0.252040000000     0.272710000000     0.0182745  
C143     C      0.807240000000     0.297180000000     0.358720000000    -0.029108   
C144     C      0.806100000000     0.284570000000     0.262080000000    -0.00565224 
C145     C      0.780950000000     0.527300000000     0.993390000000     0.0189927  
C146     C      0.801860000000     0.576660000000     0.948680000000    -0.0410717  
C147     C      0.764610000000     0.622280000000     0.915720000000    -0.0286386  
C148     C      0.769630000000     0.589570000000     0.944090000000     0.0177068  
C149     C      0.702860000000     0.616930000000     0.933890000000    -0.0286433  
C150     C      0.710090000000     0.584000000000     0.960720000000     0.0176753  
C151     C      0.807490000000     0.546050000000     0.973460000000    -0.0413329  
C152     C      0.742650000000     0.571370000000     0.964680000000    -0.00503522 
C153     C      0.683600000000     0.565320000000     0.981190000000    -0.0410125  
C154     C      0.689140000000     0.534490000000     0.005490000000    -0.0410714  
C155     C      0.726520000000     0.487840000000     0.035740000000    -0.0287349  
C156     C      0.721300000000     0.521450000000     0.009630000000     0.0185009  
C157     C      0.787790000000     0.494570000000     0.020870000000    -0.0289039  
C158     C      0.748340000000     0.539970000000     0.989540000000    -0.00579133 
C159     C      0.305280000000     0.862160000000     0.687640000000     0.0183747  
C160     C      0.315310000000     0.873970000000     0.778890000000    -0.0412075  
C161     C      0.297660000000     0.834290000000     0.849780000000    -0.0289214  
C162     C      0.300570000000     0.843390000000     0.793090000000     0.0184443  
C163     C      0.271880000000     0.779160000000     0.823750000000    -0.0290047  
C164     C      0.273800000000     0.790490000000     0.767760000000     0.0180969  
C165     C      0.318010000000     0.883040000000     0.726740000000    -0.0413914  
C166     C      0.288080000000     0.821750000000     0.754250000000    -0.00561204 
C167     C      0.261090000000     0.769630000000     0.728630000000    -0.0411858  
C168     C      0.262660000000     0.779330000000     0.676600000000    -0.0412488  
C169     C      0.278240000000     0.819690000000     0.605550000000    -0.0288545  
C170     C      0.277010000000     0.810130000000     0.662350000000     0.017547   
C171     C      0.310010000000     0.871890000000     0.631530000000    -0.0291304  
C172     C      0.290160000000     0.831380000000     0.701130000000    -0.00545351 
C173     C      0.336210000000     0.800430000000     0.202340000000     0.0184192  
C174     C      0.354630000000     0.830920000000     0.278900000000    -0.0410142  
C175     C      0.320960000000     0.876960000000     0.320060000000    -0.028388   
C176     C      0.325710000000     0.850480000000     0.278580000000     0.0175421  
C177     C      0.267470000000     0.893320000000     0.276040000000    -0.0283305  
C178     C      0.272730000000     0.864970000000     0.237930000000     0.0181571  
C179     C      0.359780000000     0.806170000000     0.241320000000    -0.0416092  
C180     C      0.301720000000     0.845160000000     0.239560000000    -0.00517868 
C181     C      0.248850000000     0.858840000000     0.199550000000    -0.0410543  
C182     C      0.253390000000     0.833160000000     0.163300000000    -0.0412898  
C183     C      0.286060000000     0.785430000000     0.124780000000    -0.0287754  
C184     C      0.282220000000     0.813460000000     0.163860000000     0.0182891  
C185     C      0.342450000000     0.772930000000     0.163040000000    -0.0296282  
C186     C      0.306720000000     0.819510000000     0.201760000000    -0.00564197 
C187     C      0.505310000000     0.805240000000     0.929930000000     0.018155   
C188     C      0.559330000000     0.826040000000     0.956390000000    -0.0412896  
C189     C      0.612080000000     0.808200000000     0.912700000000    -0.0284854  
C190     C      0.574910000000     0.806280000000     0.918370000000     0.0177702  
C191     C      0.607700000000     0.767100000000     0.837550000000    -0.0284803  
C192     C      0.570710000000     0.766430000000     0.846110000000     0.0178364  
C193     C      0.524970000000     0.825610000000     0.961970000000    -0.0415643  
C194     C      0.555570000000     0.785950000000     0.885310000000    -0.00533955 
C195     C      0.550990000000     0.746740000000     0.813190000000    -0.0412902  
C196     C      0.516650000000     0.746120000000     0.819060000000    -0.0415471  
C197     C      0.463850000000     0.764230000000     0.862120000000    -0.0286674  
C198     C      0.501120000000     0.765220000000     0.857950000000     0.0176382  
C199     C      0.468140000000     0.806990000000     0.935470000000    -0.029127   
C200     C      0.520470000000     0.785400000000     0.891180000000    -0.00559624 
C201     C      0.301220000000     0.350930000000     0.742980000000     0.0190452  
C202     C      0.272680000000     0.378070000000     0.671340000000    -0.040876   
C203     C      0.282250000000     0.361350000000     0.578240000000    -0.0285842  
C204     C      0.288720000000     0.356980000000     0.635540000000     0.0185143  
C205     C      0.320530000000     0.312610000000     0.560410000000    -0.0286574  
C206     C      0.327150000000     0.310510000000     0.618070000000     0.0180777  
C207     C      0.278570000000     0.374820000000     0.724470000000    -0.0413062  
C208     C      0.311190000000     0.332380000000     0.653450000000    -0.00525622 
C209     C      0.349730000000     0.286560000000     0.636640000000    -0.0411891  
C210     C      0.356350000000     0.283990000000     0.689650000000    -0.0411027  
C211     C      0.348370000000     0.301820000000     0.782560000000    -0.028625   
C212     C      0.340620000000     0.305330000000     0.725430000000     0.0180626  
C213     C      0.306290000000     0.347200000000     0.800740000000    -0.0292953  
C214     C      0.317650000000     0.329490000000     0.707560000000    -0.00544484 
C215     C      0.338030000000     0.367710000000     0.162400000000     0.0177566  
C216     C      0.313940000000     0.391360000000     0.241030000000    -0.0412745  
C217     C      0.263580000000     0.366690000000     0.284140000000    -0.0286014  
C218     C      0.289230000000     0.366560000000     0.241290000000     0.0177522  
C219     C      0.236490000000     0.316860000000     0.240750000000    -0.028645   
C220     C      0.263780000000     0.317170000000     0.200640000000     0.0183826  
C221     C      0.338080000000     0.391850000000     0.202180000000    -0.0414839  
C222     C      0.288690000000     0.342090000000     0.201500000000    -0.00550692 
C223     C      0.263940000000     0.292750000000     0.161330000000    -0.0412675  
C224     C      0.288680000000     0.292670000000     0.123430000000    -0.0413052  
C225     C      0.340290000000     0.315860000000     0.082510000000    -0.028562   
C226     C      0.313510000000     0.317370000000     0.123360000000     0.0176806  
C227     C      0.365210000000     0.368710000000     0.122050000000    -0.0293752  
C228     C      0.313560000000     0.342380000000     0.162200000000    -0.00541936 
C229     C      0.552470000000     0.330420000000     0.874090000000     0.017771   
C230     C      0.607430000000     0.340460000000     0.838610000000    -0.0413803  
C231     C      0.659340000000     0.328760000000     0.888820000000    -0.0286546  
C232     C      0.622080000000     0.329980000000     0.885240000000     0.0178146  
C233     C      0.653130000000     0.308470000000     0.982040000000    -0.0286124  
C234     C      0.616090000000     0.308680000000     0.973970000000     0.0174316  
C235     C      0.573070000000     0.340730000000     0.833140000000    -0.0416574  
C236     C      0.601840000000     0.319410000000     0.926820000000    -0.0054191  
C237     C      0.595530000000     0.297250000000     0.014260000000    -0.0414338  
C238     C      0.561210000000     0.296560000000     0.008240000000    -0.041303   
C239     C      0.509420000000     0.305450000000     0.956260000000    -0.0284096  
C240     C      0.546550000000     0.307560000000     0.961930000000     0.0177303  
C241     C      0.515460000000     0.329930000000     0.865780000000    -0.0288883  
C242     C      0.566760000000     0.319200000000     0.920960000000    -0.0055836  
C243     C      0.376100000000     0.527850000000     0.888680000000     0.0189893  
C244     C      0.334610000000     0.571880000000     0.881530000000    -0.0409564  
C245     C      0.331670000000     0.620500000000     0.943810000000    -0.0289155  
C246     C      0.347790000000     0.588440000000     0.924970000000     0.018224   
C247     C      0.374040000000     0.622750000000     0.015830000000    -0.0289075  
C248     C      0.389150000000     0.590890000000     0.994500000000     0.0184159  
C249     C      0.348730000000     0.542070000000     0.863400000000    -0.0412781  
C250     C      0.375530000000     0.574680000000     0.950680000000    -0.00514807 
C251     C      0.416770000000     0.576870000000     0.019420000000    -0.0408482  
C252     C      0.431020000000     0.547170000000     0.001120000000    -0.0409424  
C253     C      0.433780000000     0.498490000000     0.938870000000    -0.0289082  
C254     C      0.417760000000     0.530570000000     0.957820000000     0.0187481  
C255     C      0.391320000000     0.495990000000     0.867420000000    -0.0295105  
C256     C      0.389930000000     0.544270000000     0.932210000000    -0.00556637 
Cd1      Cd     0.401320000000     0.372430000000     0.929530000000     0.506814   
Cd2      Cd     0.356420000000     0.747490000000     0.967030000000     0.507202   
Cd3      Cd     0.766010000000     0.369300000000     0.978540000000     0.507361   
Cd4      Cd     0.723410000000     0.744410000000     0.915560000000     0.507578   
Cd5      Cd     0.862780000000     0.214760000000     0.486740000000     0.507549   
Cd6      Cd     0.877200000000     0.852930000000     0.410670000000     0.506857   
Cd7      Cd     0.242490000000     0.910050000000     0.471340000000     0.506103   
Cd8      Cd     0.221050000000     0.293160000000     0.436570000000     0.506872   
H1       H      0.188530000000     0.181930000000     0.502680000000     0.056043   
H2       H      0.304700000000     0.036720000000     0.489790000000     0.0462892  
H3       H      0.226730000000     0.164500000000     0.362570000000     0.0477044  
H4       H      0.216810000000     0.019530000000     0.548090000000     0.0569085  
H5       H      0.307900000000     0.072290000000     0.386650000000     0.04238    
H6       H      0.290620000000     0.128510000000     0.359530000000     0.0424766  
H7       H      0.264150000000     0.182050000000     0.387220000000     0.056615   
H8       H      0.291250000000     0.019090000000     0.429110000000     0.0562671  
H9       H      0.172220000000     0.128810000000     0.545740000000     0.0424028  
H10      H      0.174140000000     0.163790000000     0.443530000000     0.0475933  
H11      H      0.189860000000     0.072830000000     0.573470000000     0.0424411  
H12      H      0.255650000000     0.036900000000     0.567630000000     0.0463103  
H13      H      0.124650000000     0.932850000000     0.506430000000     0.0560758  
H14      H      0.994400000000     0.800370000000     0.513530000000     0.0450981  
H15      H      0.128050000000     0.867240000000     0.387650000000     0.0487434  
H16      H      0.964860000000     0.892310000000     0.526250000000     0.056432   
H17      H      0.042120000000     0.782710000000     0.426220000000     0.0428455  
H18      H      0.098360000000     0.801790000000     0.406440000000     0.0425487  
H19      H      0.144720000000     0.839370000000     0.434870000000     0.0562574  
H20      H      0.984250000000     0.799540000000     0.445550000000     0.0565292  
H21      H      0.066930000000     0.949400000000     0.527310000000     0.0422938  
H22      H      0.112360000000     0.934640000000     0.440090000000     0.0486051  
H23      H      0.011070000000     0.929930000000     0.548700000000     0.0427767  
H24      H      0.982630000000     0.859050000000     0.563680000000     0.0448891  
H25      H      0.907780000000     0.958410000000     0.326740000000     0.0564245  
H26      H      0.835500000000     0.079420000000     0.521460000000     0.0471903  
H27      H      0.814640000000     0.972710000000     0.315450000000     0.0438813  
H28      H      0.914640000000     0.108110000000     0.442690000000     0.0560108  
H29      H      0.780220000000     0.048920000000     0.462730000000     0.0423151  
H30      H      0.775700000000     0.997790000000     0.410220000000     0.0425687  
H31      H      0.805190000000     0.948750000000     0.372430000000     0.0560737  
H32      H      0.811060000000     0.102910000000     0.475880000000     0.056353   
H33      H      0.937940000000     0.010530000000     0.346040000000     0.0434256  
H34      H      0.876990000000     0.979660000000     0.289060000000     0.0439429  
H35      H      0.942810000000     0.060530000000     0.400900000000     0.042594   
H36      H      0.905300000000     0.081920000000     0.497030000000     0.0467706  
H37      H      0.124060000000     0.313850000000     0.546450000000     0.0566981  
H38      H      0.986950000000     0.225250000000     0.412970000000     0.0494528  
H39      H      0.091910000000     0.359090000000     0.424890000000     0.0446181  
H40      H      0.969240000000     0.255190000000     0.559670000000     0.0553741  
H41      H      0.007320000000     0.281410000000     0.344060000000     0.0425924  
H42      H      0.057690000000     0.315540000000     0.341190000000     0.0427522  
H43      H      0.110940000000     0.329400000000     0.381910000000     0.055735   
H44      H      0.960780000000     0.260320000000     0.397590000000     0.0561153  
H45      H      0.076580000000     0.295230000000     0.600280000000     0.0426955  
H46      H      0.100870000000     0.350010000000     0.527020000000     0.0446975  
H47      H      0.025080000000     0.262850000000     0.603500000000     0.0421171  
H48      H      0.990540000000     0.219810000000     0.533860000000     0.0489201  
H49      H      0.804880000000     0.879050000000     0.558030000000     0.0564346  
H50      H      0.821880000000     0.748940000000     0.760550000000     0.0469096  
H51      H      0.767720000000     0.793000000000     0.519490000000     0.0456556  
H52      H      0.772130000000     0.829430000000     0.800330000000     0.0559063  
H53      H      0.797720000000     0.712970000000     0.663330000000     0.0427273  
H54      H      0.797150000000     0.730560000000     0.572330000000     0.0428747  
H55      H      0.807980000000     0.775430000000     0.509220000000     0.0569093  
H56      H      0.783370000000     0.726700000000     0.753640000000     0.0567299  
H57      H      0.787660000000     0.893260000000     0.647850000000     0.042397   
H58      H      0.765660000000     0.859070000000     0.548770000000     0.0455481  
H59      H      0.786650000000     0.875530000000     0.738830000000     0.0422228  
H60      H      0.814290000000     0.816420000000     0.794310000000     0.0467887  
H61      H      0.897500000000     0.822140000000     0.229400000000     0.0562798  
H62      H      0.729450000000     0.792970000000     0.119610000000     0.0476495  
H63      H      0.857460000000     0.738820000000     0.270830000000     0.0450971  
H64      H      0.801390000000     0.809790000000     0.019800000000     0.0563897  
H65      H      0.741430000000     0.738650000000     0.198640000000     0.0430506  
H66      H      0.781400000000     0.734110000000     0.269600000000     0.0428909  
H67      H      0.829280000000     0.759140000000     0.314420000000     0.0567939  
H68      H      0.732900000000     0.748930000000     0.104880000000     0.0569273  
H69      H      0.888810000000     0.832090000000     0.135810000000     0.0427753  
H70      H      0.899870000000     0.777770000000     0.218450000000     0.0452143  
H71      H      0.848910000000     0.836360000000     0.064710000000     0.0423959  
H72      H      0.775030000000     0.833560000000     0.061720000000     0.0470348  
H73      H      0.790230000000     0.283780000000     0.594340000000     0.056169   
H74      H      0.876620000000     0.335910000000     0.837630000000     0.0445873  
H75      H      0.805680000000     0.211450000000     0.692110000000     0.0451922  
H76      H      0.800130000000     0.386830000000     0.798470000000     0.0567522  
H77      H      0.872400000000     0.259140000000     0.838390000000     0.0426545  
H78      H      0.861860000000     0.218540000000     0.768840000000     0.0425202  
H79      H      0.848720000000     0.210120000000     0.675740000000     0.0561285  
H80      H      0.853590000000     0.310920000000     0.883370000000     0.0560542  
H81      H      0.774000000000     0.336080000000     0.638290000000     0.0427594  
H82      H      0.768870000000     0.259060000000     0.641730000000     0.0450615  
H83      H      0.785630000000     0.377070000000     0.706830000000     0.0432924  
H84      H      0.843430000000     0.382140000000     0.785030000000     0.0449067  
H85      H      0.788540000000     0.271410000000     0.088170000000     0.0563204  
H86      H      0.782010000000     0.306210000000     0.369260000000     0.0458181  
H87      H      0.857250000000     0.332920000000     0.135620000000     0.0461198  
H88      H      0.793560000000     0.212840000000     0.330920000000     0.0562957  
H89      H      0.831550000000     0.356590000000     0.322860000000     0.0430321  
H90      H      0.841380000000     0.373800000000     0.232940000000     0.0425601  
H91      H      0.827510000000     0.366020000000     0.141000000000     0.0561361  
H92      H      0.825270000000     0.310030000000     0.384700000000     0.0572697  
H93      H      0.784820000000     0.223170000000     0.149010000000     0.0422824  
H94      H      0.832190000000     0.271690000000     0.099440000000     0.0461533  
H95      H      0.776360000000     0.205410000000     0.239050000000     0.042507   
H96      H      0.761700000000     0.243790000000     0.337360000000     0.0456497  
H97      H      0.682650000000     0.630340000000     0.954980000000     0.0564657  
H98      H      0.793780000000     0.500470000000     0.062050000000     0.0455566  
H99      H      0.765280000000     0.616860000000     0.873330000000     0.0481644  
H100     H      0.705040000000     0.470990000000     0.028100000000     0.0567071  
H101     H      0.832690000000     0.536840000000     0.976800000000     0.0429306  
H102     H      0.822810000000     0.590380000000     0.932910000000     0.0425893  
H103     H      0.785860000000     0.639390000000     0.923700000000     0.0564097  
H104     H      0.809870000000     0.482130000000     0.003370000000     0.0570009  
H105     H      0.658420000000     0.574650000000     0.978190000000     0.0431782  
H106     H      0.693070000000     0.611160000000     0.894510000000     0.0485553  
H107     H      0.668180000000     0.520650000000     0.020960000000     0.0433957  
H108     H      0.727170000000     0.492300000000     0.078390000000     0.0458764  
H109     H      0.275100000000     0.751400000000     0.826150000000     0.0570623  
H110     H      0.334990000000     0.863160000000     0.619090000000     0.0466836  
H111     H      0.274200000000     0.845480000000     0.864560000000     0.0457551  
H112     H      0.254880000000     0.811710000000     0.586160000000     0.0562752  
H113     H      0.330070000000     0.906550000000     0.716830000000     0.0425288  
H114     H      0.324980000000     0.890820000000     0.808330000000     0.0426232  
H115     H      0.318210000000     0.845870000000     0.872340000000     0.0560605  
H116     H      0.309520000000     0.899790000000     0.627920000000     0.056265   
H117     H      0.249880000000     0.745670000000     0.738430000000     0.042678   
H118     H      0.246460000000     0.784780000000     0.838110000000     0.0459191  
H119     H      0.252640000000     0.762670000000     0.647190000000     0.0425703  
H120     H      0.298570000000     0.805070000000     0.586990000000     0.0468292  
H121     H      0.240490000000     0.897150000000     0.283070000000     0.0560056  
H122     H      0.336880000000     0.748390000000     0.181840000000     0.0466783  
H123     H      0.336090000000     0.899220000000     0.308950000000     0.0461572  
H124     H      0.273570000000     0.792380000000     0.087760000000     0.0557521  
H125     H      0.382330000000     0.791370000000     0.242670000000     0.042899   
H126     H      0.373330000000     0.834820000000     0.308490000000     0.0424284  
H127     H      0.331050000000     0.867750000000     0.357670000000     0.0560162  
H128     H      0.369190000000     0.772860000000     0.152220000000     0.057655   
H129     H      0.226520000000     0.873950000000     0.197750000000     0.0426167  
H130     H      0.276950000000     0.916740000000     0.257680000000     0.0462784  
H131     H      0.234310000000     0.828700000000     0.134510000000     0.0425966  
H132     H      0.272810000000     0.763040000000     0.140280000000     0.0464719  
H133     H      0.612860000000     0.784350000000     0.804520000000     0.0462205  
H134     H      0.459360000000     0.830230000000     0.915800000000     0.0474815  
H135     H      0.623610000000     0.810750000000     0.951770000000     0.0564449  
H136     H      0.455080000000     0.738010000000     0.855530000000     0.056415   
H137     H      0.513600000000     0.841470000000     0.991300000000     0.0427154  
H138     H      0.573850000000     0.842130000000     0.981620000000     0.0424197  
H139     H      0.618080000000     0.831680000000     0.891180000000     0.0461915  
H140     H      0.461650000000     0.809240000000     0.977420000000     0.0572566  
H141     H      0.562260000000     0.731880000000     0.782530000000     0.0425505  
H142     H      0.616390000000     0.741720000000     0.825250000000     0.0565145  
H143     H      0.502050000000     0.730760000000     0.792880000000     0.0425772  
H144     H      0.453480000000     0.779540000000     0.829850000000     0.047103   
H145     H      0.321580000000     0.287050000000     0.542780000000     0.0563254  
H146     H      0.286720000000     0.330070000000     0.815830000000     0.0462288  
H147     H      0.299500000000     0.381060000000     0.563750000000     0.0459197  
H148     H      0.374950000000     0.295130000000     0.787760000000     0.0560822  
H149     H      0.265470000000     0.391150000000     0.751300000000     0.0428268  
H150     H      0.255380000000     0.397070000000     0.658090000000     0.0427299  
H151     H      0.256650000000     0.370910000000     0.571850000000     0.0566063  
H152     H      0.303100000000     0.372020000000     0.820130000000     0.0573228  
H153     H      0.362290000000     0.269750000000     0.609900000000     0.0426547  
H154     H      0.341000000000     0.327400000000     0.542590000000     0.0459026  
H155     H      0.373890000000     0.265200000000     0.702870000000     0.0422936  
H156     H      0.333710000000     0.280260000000     0.797740000000     0.045742   
H157     H      0.227890000000     0.290640000000     0.247640000000     0.0566551  
H158     H      0.388250000000     0.358630000000     0.139880000000     0.0483677  
H159     H      0.244620000000     0.385930000000     0.274180000000     0.0460761  
H160     H      0.329640000000     0.306510000000     0.045300000000     0.0555615  
H161     H      0.357010000000     0.411200000000     0.203200000000     0.0426239  
H162     H      0.314600000000     0.410390000000     0.271190000000     0.0424514  
H163     H      0.275130000000     0.374900000000     0.321290000000     0.0558622  
H164     H      0.370070000000     0.395370000000     0.111170000000     0.0567244  
H165     H      0.244890000000     0.273540000000     0.160080000000     0.0426225  
H166     H      0.215110000000     0.330890000000     0.224310000000     0.0461451  
H167     H      0.288430000000     0.273200000000     0.093920000000     0.042371   
H168     H      0.358830000000     0.296830000000     0.095030000000     0.047859   
H169     H      0.661820000000     0.281980000000     0.979420000000     0.0469067  
H170     H      0.509270000000     0.307450000000     0.841960000000     0.0466578  
H171     H      0.670210000000     0.349940000000     0.866180000000     0.0565732  
H172     H      0.497360000000     0.310490000000     0.994440000000     0.0560266  
H173     H      0.562470000000     0.348810000000     0.796550000000     0.042406   
H174     H      0.622720000000     0.348250000000     0.806080000000     0.0423739  
H175     H      0.667830000000     0.305220000000     0.869610000000     0.0466807  
H176     H      0.508130000000     0.352590000000     0.843130000000     0.056662   
H177     H      0.606160000000     0.288570000000     0.050510000000     0.0423806  
H178     H      0.658780000000     0.317000000000     0.022290000000     0.0567778  
H179     H      0.545990000000     0.287240000000     0.039880000000     0.0424171  
H180     H      0.503090000000     0.279100000000     0.945660000000     0.0463762  
H181     H      0.393700000000     0.638930000000     0.033000000000     0.0568563  
H182     H      0.408520000000     0.503110000000     0.835440000000     0.0460788  
H183     H      0.309860000000     0.613370000000     0.967890000000     0.0463315  
H184     H      0.444230000000     0.484210000000     0.972210000000     0.0570482  
H185     H      0.338170000000     0.529970000000     0.829500000000     0.0427062  
H186     H      0.313270000000     0.582130000000     0.861490000000     0.0426657  
H187     H      0.321970000000     0.635050000000     0.910170000000     0.0569648  
H188     H      0.371620000000     0.479740000000     0.850550000000     0.0571668  
H189     H      0.427370000000     0.589000000000     0.053270000000     0.0431665  
H190     H      0.357190000000     0.615550000000     0.048220000000     0.0459251  
H191     H      0.452470000000     0.537020000000     0.020990000000     0.0432883  
H192     H      0.455030000000     0.505650000000     0.913590000000     0.0462006  
N1       N      0.256870000000     0.015260000000     0.492760000000    -0.149169   
N2       N      0.221530000000     0.185910000000     0.437220000000    -0.14934    
N3       N      0.970670000000     0.844500000000     0.487130000000    -0.150261   
N4       N      0.138920000000     0.890650000000     0.459310000000    -0.149006   
N5       N      0.863750000000     0.108320000000     0.468720000000    -0.149907   
N6       N      0.856730000000     0.949950000000     0.349160000000    -0.150045   
N7       N      0.963240000000     0.247090000000     0.477950000000    -0.149682   
N8       N      0.121130000000     0.323070000000     0.463800000000    -0.149933   
N9       N      0.780070000000     0.776700000000     0.785150000000    -0.149566   
N10      N      0.806210000000     0.828560000000     0.527040000000    -0.149181   
N11      N      0.762270000000     0.782140000000     0.057820000000    -0.149561   
N12      N      0.865500000000     0.791110000000     0.276860000000    -0.149507   
N13      N      0.826600000000     0.350850000000     0.845810000000    -0.1502     
N14      N      0.818440000000     0.243840000000     0.630300000000    -0.15014    
N15      N      0.808270000000     0.260350000000     0.364480000000    -0.149451   
N16      N      0.810070000000     0.319540000000     0.107200000000    -0.149587   
N17      N      0.758280000000     0.472800000000     0.019590000000    -0.149839   
N18      N      0.732590000000     0.638170000000     0.928360000000    -0.149289   
N19      N      0.284910000000     0.855840000000     0.598220000000    -0.15008    
N20      N      0.295900000000     0.797530000000     0.856170000000    -0.149145   
N21      N      0.321160000000     0.776550000000     0.116900000000    -0.149507   
N22      N      0.286020000000     0.887420000000     0.324400000000    -0.149909   
N23      N      0.451450000000     0.777810000000     0.911800000000    -0.14944    
N24      N      0.625660000000     0.779380000000     0.883590000000    -0.149795   
N25      N      0.338970000000     0.332310000000     0.811650000000    -0.149173   
N26      N      0.288950000000     0.329880000000     0.549890000000    -0.149684   
N27      N      0.357270000000     0.348380000000     0.075780000000    -0.149735   
N28      N      0.247080000000     0.333770000000     0.288870000000    -0.149547   
N29      N      0.497050000000     0.327960000000     0.915200000000    -0.149796   
N30      N      0.671040000000     0.328640000000     0.943010000000    -0.149229   
N31      N      0.410300000000     0.478400000000     0.908000000000    -0.149366   
N32      N      0.354520000000     0.640470000000     0.976010000000    -0.149255   
O1       O      0.448620000000     0.338570000000     0.959890000000    -0.253495   
O2       O      0.387800000000     0.426720000000     0.888220000000    -0.248233   
O3       O      0.387500000000     0.383140000000     0.021880000000    -0.249982   
O4       O      0.350350000000     0.370070000000     0.877250000000    -0.245377   
O5       O      0.387130000000     0.332500000000     0.859710000000    -0.249791   
O6       O      0.367610000000     0.337760000000     0.989210000000    -0.252779   
O7       O      0.454240000000     0.360730000000     0.884280000000    -0.250792   
O8       O      0.424620000000     0.428710000000     0.948230000000    -0.249023   
O9       O      0.336890000000     0.690850000000     0.941310000000    -0.245102   
O10      O      0.407990000000     0.780920000000     0.969950000000    -0.248033   
O11      O      0.362470000000     0.759360000000     0.060840000000    -0.246985   
O12      O      0.335550000000     0.797000000000     0.920430000000    -0.251434   
O13      O      0.313340000000     0.749760000000     0.899000000000    -0.243327   
O14      O      0.313730000000     0.766640000000     0.029430000000    -0.253839   
O15      O      0.373840000000     0.692460000000     0.001250000000    -0.251476   
O16      O      0.404800000000     0.744440000000     0.908500000000    -0.253959   
O17      O      0.785390000000     0.379700000000     0.888950000000    -0.248348   
O18      O      0.797850000000     0.366980000000     0.059690000000    -0.251495   
O19      O      0.719020000000     0.356640000000     0.920940000000    -0.250326   
O20      O      0.735820000000     0.420010000000     0.008080000000    -0.252348   
O21      O      0.787640000000     0.426560000000     0.991420000000    -0.249594   
O22      O      0.713300000000     0.340750000000     0.000270000000    -0.247583   
O23      O      0.811030000000     0.340830000000     0.930520000000    -0.253276   
O24      O      0.779180000000     0.319580000000     0.031960000000    -0.24625    
O25      O      0.755010000000     0.735820000000     0.834890000000    -0.248745   
O26      O      0.761430000000     0.778600000000     0.968510000000    -0.249476   
O27      O      0.754290000000     0.691280000000     0.917650000000    -0.248677   
O28      O      0.670540000000     0.745070000000     0.867150000000    -0.252085   
O29      O      0.673850000000     0.779340000000     0.931440000000    -0.253046   
O30      O      0.701710000000     0.687010000000     0.930210000000    -0.248432   
O31      O      0.749820000000     0.787220000000     0.859510000000    -0.248761   
O32      O      0.726360000000     0.748680000000     0.011180000000    -0.250943   
O33      O      0.836870000000     0.158200000000     0.487030000000    -0.24964    
O34      O      0.912970000000     0.233910000000     0.440860000000    -0.249581   
O35      O      0.825380000000     0.248350000000     0.541820000000    -0.25217    
O36      O      0.843010000000     0.262600000000     0.435240000000    -0.246703   
O37      O      0.825860000000     0.213920000000     0.410420000000    -0.250165   
O38      O      0.853750000000     0.210730000000     0.581730000000    -0.250325   
O39      O      0.888520000000     0.160430000000     0.466690000000    -0.254158   
O40      O      0.916590000000     0.231770000000     0.524120000000    -0.250569   
O41      O      0.841760000000     0.814310000000     0.460470000000    -0.245166   
O42      O      0.889110000000     0.835770000000     0.320270000000    -0.24999    
O43      O      0.930590000000     0.824950000000     0.430990000000    -0.254261   
O44      O      0.840360000000     0.899980000000     0.386540000000    -0.249394   
O45      O      0.892030000000     0.906200000000     0.368140000000    -0.248717   
O46      O      0.921240000000     0.871380000000     0.470810000000    -0.253      
O47      O      0.839110000000     0.866370000000     0.482880000000    -0.246446   
O48      O      0.853890000000     0.805300000000     0.361690000000    -0.24522    
O49      O      0.193700000000     0.875540000000     0.448750000000    -0.247032   
O50      O      0.268090000000     0.964940000000     0.451760000000    -0.25118    
O51      O      0.243060000000     0.906180000000     0.375890000000    -0.251166   
O52      O      0.250800000000     0.859480000000     0.526630000000    -0.252073   
O53      O      0.278110000000     0.903480000000     0.548550000000    -0.254287   
O54      O      0.287730000000     0.890130000000     0.413900000000    -0.251644   
O55      O      0.183310000000     0.923300000000     0.484450000000    -0.246462   
O56      O      0.231430000000     0.964940000000     0.512570000000    -0.243487   
O57      O      0.241410000000     0.237240000000     0.409570000000    -0.247535   
O58      O      0.172330000000     0.305080000000     0.491900000000    -0.24639    
O59      O      0.223460000000     0.293280000000     0.341090000000    -0.247074   
O60      O      0.272880000000     0.291350000000     0.487820000000    -0.25231    
O61      O      0.240700000000     0.333370000000     0.502520000000    -0.24909    
O62      O      0.246500000000     0.335600000000     0.378470000000    -0.252136   
O63      O      0.202410000000     0.237190000000     0.466550000000    -0.251458   
O64      O      0.165720000000     0.312980000000     0.410000000000    -0.252798   


