data_structure

_audit_creation_method RASPA-1.0
_audit_creation_date 2023-5-22
_audit_author_name 'Poobodin Mano'

_cell_length_a    43.8055
_cell_length_b    42.0486
_cell_length_c    42.4344
_cell_angle_alpha 90
_cell_angle_beta  90
_cell_angle_gamma 90
_cell_volume      78162.5

_symmetry_cell_setting          triclinic
_symmetry_space_group_name_Hall 'P 1'
_symmetry_space_group_name_H-M  'P 1'
_symmetry_Int_Tables_number     1

_symmetry_equiv_pos_as_xyz 'x,y,z'

loop_
_atom_site_label
_atom_site_type_symbol
_atom_site_fract_x
_atom_site_fract_y
_atom_site_fract_z
_atom_site_charge
C1       C      0.388460000000     0.228440000000     0.410020000000     0.361927   
C2       C      0.455520000000     0.237280000000     0.498210000000     0.363251   
C3       C      0.388230000000     0.149770000000     0.486590000000     0.363601   
C4       C      0.474270000000     0.161270000000     0.420650000000     0.361936   
C5       C      0.016570000000     0.297290000000     0.022770000000     0.361649   
C6       C      0.084720000000     0.382070000000     0.030100000000     0.360172   
C7       C      0.017790000000     0.374380000000     0.112450000000     0.361782   
C8       C      0.084430000000     0.291760000000     0.103190000000     0.361131   
C9       C      0.147090000000     0.410320000000     0.485670000000     0.362424   
C10      C      0.219410000000     0.420070000000     0.401360000000     0.361973   
C11      C      0.134760000000     0.483670000000     0.400700000000     0.36199    
C12      C      0.208740000000     0.495960000000     0.483450000000     0.36335    
C13      C      0.266710000000     0.043770000000     0.043770000000     0.362351   
C14      C      0.349890000000     0.113630000000     0.055120000000     0.363633   
C15      C      0.268540000000     0.112790000000     0.129140000000     0.36268    
C16      C      0.342460000000     0.032080000000     0.125890000000     0.361645   
C17      C      0.144650000000     0.257450000000     0.151980000000     0.364159   
C18      C      0.219640000000     0.177650000000     0.155720000000     0.363764   
C19      C      0.211040000000     0.248090000000     0.240140000000     0.362455   
C20      C      0.135610000000     0.170640000000     0.221990000000     0.361311   
C21      C      0.274530000000     0.282510000000     0.284060000000     0.362932   
C22      C      0.265540000000     0.356970000000     0.366260000000     0.361727   
C23      C      0.347980000000     0.292190000000     0.368920000000     0.362327   
C24      C      0.341700000000     0.365140000000     0.284880000000     0.52231    
C25      C      0.472180000000     0.399540000000     0.163520000000     0.362102   
C26      C      0.472840000000     0.483620000000     0.249610000000     0.360873   
C27      C      0.410250000000     0.487530000000     0.163740000000     0.358824   
C28      C      0.407020000000     0.401590000000     0.243930000000     0.519531   
C29      C      0.010180000000     0.112940000000     0.354410000000     0.362991   
C30      C      0.020570000000     0.045820000000     0.266350000000     0.361171   
C31      C      0.088310000000     0.131460000000     0.281120000000     0.363185   
C32      C      0.096860000000     0.041830000000     0.342960000000     0.361826   
C33      C      0.388550000000     0.234140000000     0.921010000000     0.363894   
C34      C      0.464860000000     0.233140000000     0.999820000000     0.356576   
C35      C      0.394650000000     0.148810000000     0.991660000000     0.356701   
C36      C      0.471140000000     0.158480000000     0.918090000000     0.363615   
C37      C      0.025600000000     0.287180000000     0.537150000000     0.360624   
C38      C      0.087300000000     0.372020000000     0.532000000000     0.360769   
C39      C      0.027570000000     0.377080000000     0.617550000000     0.361163   
C40      C      0.092160000000     0.290740000000     0.618150000000     0.359804   
C41      C      0.148660000000     0.421320000000     0.990740000000     0.358617   
C42      C      0.222950000000     0.431270000000     0.909690000000     0.361195   
C43      C      0.142590000000     0.498200000000     0.910260000000     0.362244   
C44      C      0.218870000000     0.504210000000     0.995080000000     0.360576   
C45      C      0.260540000000     0.033170000000     0.526160000000     0.361068   
C46      C      0.323690000000     0.116520000000     0.529670000000     0.360342   
C47      C      0.250960000000     0.114930000000     0.610300000000     0.360538   
C48      C      0.322120000000     0.039840000000     0.617090000000     0.361281   
C49      C      0.156570000000     0.256030000000     0.660690000000     0.360695   
C50      C      0.227260000000     0.179450000000     0.662520000000     0.360655   
C51      C      0.222500000000     0.260990000000     0.747130000000     0.360959   
C52      C      0.161600000000     0.175080000000     0.747250000000     0.360288   
C53      C      0.283500000000     0.297560000000     0.793300000000     0.363728   
C54      C      0.271850000000     0.369130000000     0.877060000000     0.362324   
C55      C      0.356880000000     0.300670000000     0.876370000000     0.362639   
C56      C      0.350300000000     0.380610000000     0.800570000000     0.511104   
C57      C      0.471210000000     0.417550000000     0.656020000000     0.363245   
C58      C      0.476570000000     0.482870000000     0.743290000000     0.360001   
C59      C      0.394090000000     0.497850000000     0.668920000000     0.363902   
C60      C      0.394860000000     0.412760000000     0.734400000000     0.505066   
C61      C      0.031960000000     0.119670000000     0.874280000000     0.361291   
C62      C      0.041690000000     0.043880000000     0.788170000000     0.362232   
C63      C      0.102460000000     0.134940000000     0.793020000000     0.361915   
C64      C      0.113910000000     0.051180000000     0.868780000000     0.361891   
C65      C      0.395400000000     0.733540000000     0.415860000000     0.360735   
C66      C      0.460310000000     0.745960000000     0.502260000000     0.361769   
C67      C      0.399680000000     0.654950000000     0.498550000000     0.362786   
C68      C      0.477150000000     0.662030000000     0.426550000000     0.362309   
C69      C      0.032100000000     0.774120000000     0.040900000000     0.360326   
C70      C      0.103850000000     0.853720000000     0.030230000000     0.360585   
C71      C      0.027030000000     0.850940000000     0.116360000000     0.36086    
C72      C      0.115240000000     0.789870000000     0.117600000000     0.360981   
C73      C      0.141700000000     0.905880000000     0.475270000000     0.364316   
C74      C      0.216260000000     0.918160000000     0.395190000000     0.361115   
C75      C      0.129640000000     0.982270000000     0.395480000000     0.362063   
C76      C      0.204260000000     0.997000000000     0.473850000000     0.357257   
C77      C      0.284380000000     0.538870000000     0.036140000000     0.360926   
C78      C      0.364730000000     0.616020000000     0.050350000000     0.362051   
C79      C      0.283050000000     0.621400000000     0.112650000000     0.363011   
C80      C      0.350080000000     0.530140000000     0.121410000000     0.362045   
C81      C      0.158190000000     0.730370000000     0.162050000000     0.363153   
C82      C      0.242270000000     0.662370000000     0.175620000000     0.361595   
C83      C      0.228270000000     0.743590000000     0.250260000000     0.362542   
C84      C      0.158690000000     0.657960000000     0.242350000000     0.362495   
C85      C      0.287600000000     0.793620000000     0.285090000000     0.361705   
C86      C      0.278950000000     0.867110000000     0.369280000000     0.362162   
C87      C      0.362110000000     0.797710000000     0.368840000000     0.363422   
C88      C      0.355240000000     0.877630000000     0.292900000000     0.515579   
C89      C      0.480610000000     0.918320000000     0.156180000000     0.363193   
C90      C      0.480750000000     0.991380000000     0.246310000000     0.359094   
C91      C      0.408090000000     0.997740000000     0.166610000000     0.356828   
C92      C      0.413490000000     0.909910000000     0.239200000000     0.516061   
C93      C      0.011580000000     0.619380000000     0.354210000000     0.361841   
C94      C      0.023580000000     0.539920000000     0.275450000000     0.361869   
C95      C      0.092310000000     0.625350000000     0.282830000000     0.364538   
C96      C      0.093360000000     0.547510000000     0.360880000000     0.362074   
C97      C      0.406040000000     0.746090000000     0.927860000000     0.360765   
C98      C      0.488930000000     0.744280000000     0.989720000000     0.355151   
C99      C      0.407780000000     0.657590000000     0.989260000000     0.355699   
C100     C      0.486000000000     0.660140000000     0.922280000000     0.360925   
C101     C      0.019270000000     0.799950000000     0.533230000000     0.360302   
C102     C      0.098140000000     0.872950000000     0.540940000000     0.361383   
C103     C      0.028600000000     0.865960000000     0.624180000000     0.364096   
C104     C      0.100820000000     0.783700000000     0.606020000000     0.363073   
C105     C      0.149200000000     0.917020000000     0.994420000000     0.358356   
C106     C      0.230900000000     0.918590000000     0.910110000000     0.360903   
C107     C      0.149360000000     0.985620000000     0.911870000000     0.357936   
C108     C      0.231690000000     0.982650000000     0.994390000000     0.35813    
C109     C      0.270360000000     0.534740000000     0.526520000000     0.361489   
C110     C      0.336190000000     0.613820000000     0.536480000000     0.362308   
C111     C      0.263620000000     0.607200000000     0.615200000000     0.361241   
C112     C      0.335370000000     0.528260000000     0.615960000000     0.362269   
C113     C      0.163420000000     0.752450000000     0.653210000000     0.359566   
C114     C      0.234440000000     0.675370000000     0.658900000000     0.362303   
C115     C      0.226960000000     0.754220000000     0.743340000000     0.362206   
C116     C      0.161980000000     0.674160000000     0.740090000000     0.360526   
C117     C      0.287650000000     0.785910000000     0.793070000000     0.365061   
C118     C      0.279870000000     0.858140000000     0.874470000000     0.360577   
C119     C      0.368140000000     0.792110000000     0.866380000000     0.361941   
C120     C      0.355380000000     0.874290000000     0.797000000000     0.528931   
C121     C      0.462140000000     0.923170000000     0.652330000000     0.363045   
C122     C      0.457910000000     0.999930000000     0.736480000000     0.360335   
C123     C      0.386680000000     0.005470000000     0.659190000000     0.365808   
C124     C      0.387750000000     0.916730000000     0.728840000000     0.513529   
C125     C      0.025430000000     0.633970000000     0.860050000000     0.361149   
C126     C      0.032630000000     0.552340000000     0.780160000000     0.361473   
C127     C      0.098450000000     0.634760000000     0.779780000000     0.362726   
C128     C      0.103950000000     0.561760000000     0.866870000000     0.362136   
C129     C      0.899580000000     0.225760000000     0.421980000000     0.361057   
C130     C      0.967080000000     0.234970000000     0.504160000000     0.362921   
C131     C      0.904930000000     0.144910000000     0.502650000000     0.361139   
C132     C      0.978130000000     0.152090000000     0.423760000000     0.361364   
C133     C      0.528780000000     0.274990000000     0.036470000000     0.360203   
C134     C      0.591340000000     0.360780000000     0.036390000000     0.362003   
C135     C      0.532180000000     0.353860000000     0.124430000000     0.360629   
C136     C      0.601180000000     0.273650000000     0.115170000000     0.361356   
C137     C      0.645640000000     0.396020000000     0.485930000000     0.361299   
C138     C      0.721440000000     0.410090000000     0.408420000000     0.362472   
C139     C      0.634260000000     0.476820000000     0.413870000000     0.363794   
C140     C      0.714560000000     0.479730000000     0.493160000000     0.361857   
C141     C      0.760790000000     0.030050000000     0.032530000000     0.361921   
C142     C      0.834730000000     0.111920000000     0.028530000000     0.362389   
C143     C      0.766540000000     0.104750000000     0.113410000000     0.362313   
C144     C      0.845470000000     0.026560000000     0.099110000000     0.363559   
C145     C      0.666570000000     0.243650000000     0.159420000000     0.361314   
C146     C      0.740110000000     0.169600000000     0.163810000000     0.359808   
C147     C      0.732390000000     0.248500000000     0.248860000000     0.361375   
C148     C      0.667610000000     0.166940000000     0.245970000000     0.360181   
C149     C      0.792750000000     0.284790000000     0.296100000000     0.362679   
C150     C      0.780580000000     0.356190000000     0.379640000000     0.362846   
C151     C      0.867430000000     0.291080000000     0.375890000000     0.362785   
C152     C      0.855070000000     0.373080000000     0.300640000000     0.521806   
C153     C      0.959830000000     0.424020000000     0.149910000000     0.364315   
C154     C      0.964470000000     0.488750000000     0.242130000000     0.359013   
C155     C      0.886560000000     0.503530000000     0.166580000000     0.363459   
C156     C      0.893120000000     0.410620000000     0.232930000000     0.503331   
C157     C      0.518610000000     0.125850000000     0.356720000000     0.362289   
C158     C      0.536380000000     0.046430000000     0.279850000000     0.363406   
C159     C      0.603090000000     0.134040000000     0.289460000000     0.362224   
C160     C      0.601150000000     0.055160000000     0.367780000000     0.36266    
C161     C      0.888550000000     0.236210000000     0.910250000000     0.361521   
C162     C      0.958470000000     0.244230000000     0.990140000000     0.360416   
C163     C      0.896760000000     0.153100000000     0.987910000000     0.35896    
C164     C      0.966940000000     0.163470000000     0.906380000000     0.361465   
C165     C      0.513280000000     0.289510000000     0.531990000000     0.362031   
C166     C      0.592210000000     0.363320000000     0.543270000000     0.361004   
C167     C      0.516790000000     0.353840000000     0.621210000000     0.361229   
C168     C      0.596130000000     0.278060000000     0.609000000000     0.363826   
C169     C      0.647620000000     0.400700000000     0.986860000000     0.360243   
C170     C      0.714300000000     0.414580000000     0.903680000000     0.361426   
C171     C      0.635140000000     0.484070000000     0.908100000000     0.361883   
C172     C      0.706000000000     0.491450000000     0.990290000000     0.359218   
C173     C      0.773550000000     0.026710000000     0.539420000000     0.362848   
C174     C      0.841220000000     0.106050000000     0.542610000000     0.360484   
C175     C      0.768680000000     0.103990000000     0.625000000000     0.361558   
C176     C      0.842280000000     0.027940000000     0.626660000000     0.361154   
C177     C      0.656090000000     0.251590000000     0.662780000000     0.362879   
C178     C      0.733160000000     0.173170000000     0.661950000000     0.36185    
C179     C      0.727440000000     0.248410000000     0.746990000000     0.362789   
C180     C      0.656640000000     0.169680000000     0.739000000000     0.362234   
C181     C      0.787550000000     0.296070000000     0.783420000000     0.361714   
C182     C      0.780130000000     0.374250000000     0.869250000000     0.361586   
C183     C      0.857730000000     0.302190000000     0.864220000000     0.361924   
C184     C      0.847570000000     0.385340000000     0.786450000000     0.515441   
C185     C      0.968520000000     0.425230000000     0.655290000000     0.361188   
C186     C      0.970730000000     0.509300000000     0.740990000000     0.359727   
C187     C      0.902320000000     0.507410000000     0.658280000000     0.360031   
C188     C      0.908290000000     0.424260000000     0.740660000000     0.524185   
C189     C      0.512920000000     0.128660000000     0.849730000000     0.362067   
C190     C      0.520320000000     0.044730000000     0.772440000000     0.364161   
C191     C      0.589790000000     0.130010000000     0.772020000000     0.3613     
C192     C      0.591460000000     0.056140000000     0.854580000000     0.362016   
C193     C      0.895960000000     0.736750000000     0.414410000000     0.361428   
C194     C      0.963850000000     0.744570000000     0.500180000000     0.361453   
C195     C      0.900440000000     0.656240000000     0.491090000000     0.363366   
C196     C      0.978400000000     0.665140000000     0.418860000000     0.363663   
C197     C      0.532950000000     0.785010000000     0.050770000000     0.360907   
C198     C      0.606150000000     0.860910000000     0.029570000000     0.363291   
C199     C      0.542540000000     0.873010000000     0.120200000000     0.364183   
C200     C      0.619240000000     0.795180000000     0.117360000000     0.36141    
C201     C      0.642770000000     0.908020000000     0.486760000000     0.361082   
C202     C      0.720730000000     0.925070000000     0.407790000000     0.361608   
C203     C      0.635070000000     0.989170000000     0.411350000000     0.357932   
C204     C      0.710940000000     0.992570000000     0.493690000000     0.359078   
C205     C      0.765020000000     0.538600000000     0.029310000000     0.361379   
C206     C      0.831150000000     0.623910000000     0.040240000000     0.36104    
C207     C      0.756040000000     0.618430000000     0.113480000000     0.362321   
C208     C      0.825750000000     0.537080000000     0.118140000000     0.360902   
C209     C      0.651240000000     0.737010000000     0.171930000000     0.36269    
C210     C      0.728650000000     0.666340000000     0.179300000000     0.361752   
C211     C      0.720870000000     0.753170000000     0.255160000000     0.361494   
C212     C      0.657270000000     0.663050000000     0.257710000000     0.361584   
C213     C      0.783460000000     0.797510000000     0.291340000000     0.361622   
C214     C      0.776450000000     0.869220000000     0.375330000000     0.362614   
C215     C      0.861890000000     0.801600000000     0.369240000000     0.363213   
C216     C      0.851210000000     0.880730000000     0.293670000000     0.511324   
C217     C      0.977340000000     0.913180000000     0.148090000000     0.359557   
C218     C      0.979600000000     0.980340000000     0.229130000000     0.360901   
C219     C      0.894840000000     0.990370000000     0.158570000000     0.358098   
C220     C      0.894770000000     0.910000000000     0.225400000000     0.507065   
C221     C      0.512670000000     0.613380000000     0.365440000000     0.361521   
C222     C      0.530230000000     0.534260000000     0.287040000000     0.361202   
C223     C      0.593350000000     0.624030000000     0.296820000000     0.364364   
C224     C      0.594740000000     0.542600000000     0.375290000000     0.361808   
C225     C      0.893280000000     0.732600000000     0.914340000000     0.360693   
C226     C      0.967230000000     0.739830000000     0.998610000000     0.35869    
C227     C      0.896570000000     0.661250000000     0.002140000000     0.367229   
C228     C      0.967970000000     0.659210000000     0.917170000000     0.361847   
C229     C      0.518880000000     0.796920000000     0.536570000000     0.360202   
C230     C      0.595210000000     0.873550000000     0.548710000000     0.359704   
C231     C      0.518030000000     0.865220000000     0.623940000000     0.363653   
C232     C      0.595500000000     0.784360000000     0.615380000000     0.363467   
C233     C      0.635270000000     0.924010000000     0.978730000000     0.36122    
C234     C      0.711260000000     0.917800000000     0.895340000000     0.36307    
C235     C      0.629830000000     0.991460000000     0.896130000000     0.356241   
C236     C      0.715060000000     0.998170000000     0.967890000000     0.357003   
C237     C      0.772010000000     0.533060000000     0.526270000000     0.361403   
C238     C      0.837070000000     0.620070000000     0.533740000000     0.361647   
C239     C      0.761870000000     0.617290000000     0.604500000000     0.363815   
C240     C      0.837350000000     0.538610000000     0.613930000000     0.360868   
C241     C      0.658430000000     0.751760000000     0.661820000000     0.361521   
C242     C      0.733530000000     0.671540000000     0.664920000000     0.362838   
C243     C      0.724860000000     0.747090000000     0.748950000000     0.360151   
C244     C      0.657560000000     0.664200000000     0.737330000000     0.362745   
C245     C      0.784490000000     0.794770000000     0.786240000000     0.362182   
C246     C      0.773200000000     0.865420000000     0.870710000000     0.362464   
C247     C      0.858310000000     0.797860000000     0.870320000000     0.363898   
C248     C      0.851380000000     0.879580000000     0.796660000000     0.512323   
C249     C      0.978810000000     0.924390000000     0.661950000000     0.3615     
C250     C      0.982570000000     0.992860000000     0.754500000000     0.360391   
C251     C      0.904890000000     0.000830000000     0.676670000000     0.366431   
C252     C      0.910140000000     0.913220000000     0.744370000000     0.514773   
C253     C      0.519030000000     0.616740000000     0.856080000000     0.363988   
C254     C      0.532780000000     0.538170000000     0.774980000000     0.362096   
C255     C      0.596140000000     0.627710000000     0.782830000000     0.362305   
C256     C      0.602900000000     0.547260000000     0.859270000000     0.361755   
Cd1      Cd     0.426660000000     0.194640000000     0.454080000000     0.520089   
Cd2      Cd     0.050110000000     0.336730000000     0.066460000000     0.519942   
Cd3      Cd     0.177270000000     0.452500000000     0.442300000000     0.520767   
Cd4      Cd     0.306450000000     0.074990000000     0.088340000000     0.520708   
Cd5      Cd     0.177400000000     0.214240000000     0.192520000000     0.520749   
Cd6      Cd     0.307710000000     0.324320000000     0.325600000000     0.518162   
Cd7      Cd     0.441320000000     0.443400000000     0.204960000000     0.517808   
Cd8      Cd     0.053330000000     0.082920000000     0.312290000000     0.519858   
Cd9      Cd     0.429830000000     0.194560000000     0.956800000000     0.518834   
Cd10     Cd     0.057460000000     0.331600000000     0.577020000000     0.520687   
Cd11     Cd     0.183420000000     0.465000000000     0.952390000000     0.518754   
Cd12     Cd     0.288850000000     0.075790000000     0.570670000000     0.520632   
Cd13     Cd     0.191540000000     0.218320000000     0.704520000000     0.520188   
Cd14     Cd     0.315670000000     0.337220000000     0.837550000000     0.517761   
Cd15     Cd     0.434470000000     0.453320000000     0.699820000000     0.517249   
Cd16     Cd     0.072030000000     0.087370000000     0.830630000000     0.519229   
Cd17     Cd     0.433150000000     0.699720000000     0.460630000000     0.519597   
Cd18     Cd     0.069820000000     0.817630000000     0.076430000000     0.518558   
Cd19     Cd     0.173170000000     0.950600000000     0.435360000000     0.519051   
Cd20     Cd     0.320380000000     0.575510000000     0.080290000000     0.520024   
Cd21     Cd     0.197520000000     0.700450000000     0.207790000000     0.520077   
Cd22     Cd     0.320820000000     0.833240000000     0.329040000000     0.516852   
Cd23     Cd     0.446140000000     0.954360000000     0.201600000000     0.516983   
Cd24     Cd     0.054590000000     0.582320000000     0.318170000000     0.520227   
Cd25     Cd     0.447250000000     0.702160000000     0.957820000000     0.519768   
Cd26     Cd     0.060990000000     0.829880000000     0.576910000000     0.519242   
Cd27     Cd     0.189920000000     0.950650000000     0.952650000000     0.519711   
Cd28     Cd     0.301900000000     0.570050000000     0.574420000000     0.521087   
Cd29     Cd     0.196380000000     0.714330000000     0.698310000000     0.520987   
Cd30     Cd     0.322730000000     0.828050000000     0.832590000000     0.518157   
Cd31     Cd     0.423710000000     0.960590000000     0.693520000000     0.517089   
Cd32     Cd     0.064960000000     0.594580000000     0.822300000000     0.519624   
Cd33     Cd     0.938010000000     0.189180000000     0.463440000000     0.519452   
Cd34     Cd     0.563330000000     0.315440000000     0.078190000000     0.52029    
Cd35     Cd     0.679170000000     0.441830000000     0.449680000000     0.519977   
Cd36     Cd     0.802280000000     0.068430000000     0.068900000000     0.520179   
Cd37     Cd     0.701850000000     0.207560000000     0.204330000000     0.519995   
Cd38     Cd     0.824580000000     0.326860000000     0.338400000000     0.517919   
Cd39     Cd     0.925250000000     0.457210000000     0.197260000000     0.51705    
Cd40     Cd     0.564630000000     0.090190000000     0.323300000000     0.520121   
Cd41     Cd     0.928520000000     0.198890000000     0.949250000000     0.519036   
Cd42     Cd     0.553900000000     0.319500000000     0.576700000000     0.519888   
Cd43     Cd     0.675970000000     0.448140000000     0.947600000000     0.519741   
Cd44     Cd     0.806290000000     0.065800000000     0.583890000000     0.520213   
Cd45     Cd     0.693910000000     0.211190000000     0.701590000000     0.51996    
Cd46     Cd     0.817830000000     0.339770000000     0.825400000000     0.518141   
Cd47     Cd     0.938130000000     0.467140000000     0.699000000000     0.517934   
Cd48     Cd     0.552620000000     0.089820000000     0.811440000000     0.520053   
Cd49     Cd     0.935580000000     0.701480000000     0.455890000000     0.519994   
Cd50     Cd     0.574870000000     0.828970000000     0.080010000000     0.51999    
Cd51     Cd     0.677050000000     0.953590000000     0.450040000000     0.518488   
Cd52     Cd     0.794570000000     0.579020000000     0.074960000000     0.520134   
Cd53     Cd     0.689940000000     0.706070000000     0.217220000000     0.5202     
Cd54     Cd     0.818210000000     0.837850000000     0.333020000000     0.517046   
Cd55     Cd     0.936530000000     0.947440000000     0.189570000000     0.517411   
Cd56     Cd     0.557920000000     0.577880000000     0.331000000000     0.519839   
Cd57     Cd     0.931650000000     0.698620000000     0.958240000000     0.519512   
Cd58     Cd     0.556920000000     0.829180000000     0.582160000000     0.518584   
Cd59     Cd     0.673140000000     0.957580000000     0.934360000000     0.519113   
Cd60     Cd     0.801800000000     0.575740000000     0.569850000000     0.519949   
Cd61     Cd     0.692980000000     0.709760000000     0.702490000000     0.519636   
Cd62     Cd     0.816950000000     0.833770000000     0.831080000000     0.517536   
Cd63     Cd     0.945230000000     0.958320000000     0.709820000000     0.516335   
Cd64     Cd     0.562060000000     0.581650000000     0.818280000000     0.51992    
H1       H      0.996960000000     0.040670000000     0.224540000000     0.13674    
H2       H      0.475190000000     0.508420000000     0.291510000000     0.136181   
H3       H      0.356050000000     0.363740000000     0.284570000000    -0.114074   
H4       H      0.392740000000     0.403520000000     0.244750000000    -0.113377   
H5       H      0.109200000000     0.175500000000     0.278370000000     0.135436   
H6       H      0.110070000000     0.129410000000     0.222830000000     0.135927   
H7       H      0.214370000000     0.279300000000     0.277530000000     0.135828   
H8       H      0.271150000000     0.248020000000     0.249510000000     0.135506   
H9       H      0.350350000000     0.494220000000     0.154750000000     0.137505   
H10      H      0.400540000000     0.039380000000     0.142050000000     0.135223   
H11      H      0.244830000000     0.121900000000     0.170320000000     0.135532   
H12      H      0.245020000000     0.169190000000     0.115660000000     0.136569   
H13      H      0.100370000000     0.484690000000     0.367190000000     0.134559   
H14      H      0.140840000000     0.027930000000     0.353810000000     0.136121   
H15      H      0.252850000000     0.418800000000     0.367020000000     0.136847   
H16      H      0.232010000000     0.358270000000     0.400460000000     0.135665   
H17      H      0.223760000000     0.535330000000     0.032490000000     0.135446   
H18      H      0.229030000000     0.042410000000     0.014520000000     0.137022   
H19      H      0.013010000000     0.394420000000     0.156630000000     0.135341   
H20      H      0.473040000000     0.367570000000     0.126580000000     0.136288   
H21      H      0.144180000000     0.380800000000     0.017880000000     0.136136   
H22      H      0.089380000000     0.423510000000     0.004310000000     0.135636   
H23      H      0.089610000000     0.249230000000     0.126970000000     0.135212   
H24      H      0.140190000000     0.299200000000     0.126710000000     0.136384   
H25      H      0.968540000000     0.133630000000     0.364650000000     0.135187   
H26      H      0.513790000000     0.134510000000     0.418590000000     0.135413   
H27      H      0.379300000000     0.151820000000     0.052010000000     0.136477   
H28      H      0.369420000000     0.107460000000     0.995990000000     0.133553   
H29      H      0.379800000000     0.290980000000     0.404940000000     0.135577   
H30      H      0.357600000000     0.230040000000     0.373280000000     0.135931   
H31      H      0.012290000000     0.272010000000     0.981260000000     0.133643   
H32      H      0.469480000000     0.261830000000     0.039070000000     0.135956   
H33      H      0.036720000000     0.020520000000     0.745530000000     0.135529   
H34      H      0.491410000000     0.493820000000     0.788220000000     0.136357   
H35      H      0.352880000000     0.377130000000     0.786330000000    -0.106845   
H36      H      0.389380000000     0.417810000000     0.747240000000    -0.103767   
H37      H      0.104160000000     0.176990000000     0.767780000000     0.135423   
H38      H      0.160860000000     0.135710000000     0.776310000000     0.135692   
H39      H      0.224490000000     0.299000000000     0.778050000000     0.134812   
H40      H      0.281420000000     0.260630000000     0.761350000000     0.13761    
H41      H      0.344730000000     0.484230000000     0.635210000000     0.136065   
H42      H      0.380730000000     0.045800000000     0.632100000000     0.13644    
H43      H      0.210130000000     0.127270000000     0.631550000000     0.135144   
H44      H      0.267490000000     0.167620000000     0.640100000000     0.136009   
H45      H      0.108910000000     0.499420000000     0.876170000000     0.135048   
H46      H      0.151960000000     0.046980000000     0.897230000000     0.136543   
H47      H      0.249880000000     0.427620000000     0.869870000000     0.136438   
H48      H      0.243960000000     0.372370000000     0.916190000000     0.135679   
H49      H      0.210360000000     0.529770000000     0.518730000000     0.135782   
H50      H      0.259480000000     0.992230000000     0.499270000000     0.133515   
H51      H      0.027650000000     0.411310000000     0.652490000000     0.135925   
H52      H      0.489720000000     0.409520000000     0.612000000000     0.136103   
H53      H      0.146750000000     0.375740000000     0.520240000000     0.136063   
H54      H      0.087580000000     0.406170000000     0.497000000000     0.135118   
H55      H      0.096570000000     0.254640000000     0.650930000000     0.135458   
H56      H      0.152180000000     0.291110000000     0.626920000000     0.135886   
H57      H      0.021050000000     0.137480000000     0.918250000000     0.135178   
H58      H      0.501970000000     0.122070000000     0.910860000000     0.135019   
H59      H      0.330020000000     0.157090000000     0.502960000000     0.134936   
H60      H      0.379500000000     0.106220000000     0.507260000000     0.135929   
H61      H      0.397820000000     0.292860000000     0.899430000000     0.135175   
H62      H      0.347130000000     0.243030000000     0.899600000000     0.135923   
H63      H      0.023340000000     0.257350000000     0.498650000000     0.135531   
H64      H      0.462830000000     0.255590000000     0.542860000000     0.135261   
H65      H      0.016430000000     0.519900000000     0.231540000000     0.13519    
H66      H      0.488100000000     0.009960000000     0.290680000000     0.136454   
H67      H      0.366550000000     0.872570000000     0.285150000000    -0.110109   
H68      H      0.401360000000     0.914520000000     0.245850000000    -0.110274   
H69      H      0.101860000000     0.668500000000     0.261700000000     0.135609   
H70      H      0.148650000000     0.614640000000     0.262710000000     0.136046   
H71      H      0.233090000000     0.766830000000     0.292910000000     0.134756   
H72      H      0.281790000000     0.772100000000     0.241730000000     0.135534   
H73      H      0.349120000000     0.991510000000     0.152590000000     0.135568   
H74      H      0.409690000000     0.523510000000     0.130620000000     0.135195   
H75      H      0.253920000000     0.660060000000     0.114100000000     0.135156   
H76      H      0.275620000000     0.627680000000     0.174430000000     0.136205   
H77      H      0.086100000000     0.990720000000     0.378520000000     0.134661   
H78      H      0.126670000000     0.545730000000     0.395120000000     0.135776   
H79      H      0.233790000000     0.905480000000     0.351760000000     0.136001   
H80      H      0.261970000000     0.880500000000     0.412740000000     0.135392   
H81      H      0.269770000000     0.984170000000     0.023110000000     0.135102   
H82      H      0.279370000000     0.508520000000     0.998190000000     0.133672   
H83      H      0.999870000000     0.854960000000     0.155990000000     0.13607    
H84      H      0.485370000000     0.893610000000     0.114340000000     0.135141   
H85      H      0.122030000000     0.913910000000     0.034100000000     0.135168   
H86      H      0.127050000000     0.858430000000     0.988060000000     0.133634   
H87      H      0.152410000000     0.791950000000     0.147700000000     0.134363   
H88      H      0.124270000000     0.728530000000     0.128370000000     0.136116   
H89      H      0.971990000000     0.645590000000     0.359580000000     0.135517   
H90      H      0.518340000000     0.638490000000     0.422540000000     0.135648   
H91      H      0.398480000000     0.650400000000     0.050840000000     0.13595    
H92      H      0.376310000000     0.621040000000     0.989180000000     0.133802   
H93      H      0.400110000000     0.793850000000     0.397490000000     0.135463   
H94      H      0.359150000000     0.736570000000     0.384810000000     0.13521    
H95      H      0.024970000000     0.732310000000     0.016400000000     0.136062   
H96      H      0.520710000000     0.780470000000     0.989820000000     0.133036   
H97      H      0.030460000000     0.520810000000     0.742820000000     0.135635   
H98      H      0.461280000000     0.030490000000     0.774430000000     0.136705   
H99      H      0.353970000000     0.874220000000     0.782180000000    -0.117532   
H100     H      0.389130000000     0.916680000000     0.743660000000    -0.109014   
H101     H      0.101650000000     0.669250000000     0.745220000000     0.136101   
H102     H      0.158600000000     0.639210000000     0.774070000000     0.135464   
H103     H      0.230270000000     0.792930000000     0.773280000000     0.135204   
H104     H      0.281770000000     0.744370000000     0.767910000000     0.136829   
H105     H      0.326470000000     0.004210000000     0.650390000000     0.137098   
H106     H      0.380600000000     0.542990000000     0.655390000000     0.135618   
H107     H      0.224820000000     0.615350000000     0.641730000000     0.135003   
H108     H      0.273520000000     0.666650000000     0.633190000000     0.136034   
H109     H      0.112510000000     0.989260000000     0.881650000000     0.132397   
H110     H      0.136630000000     0.560670000000     0.902040000000     0.134956   
H111     H      0.260260000000     0.917790000000     0.872070000000     0.13567    
H112     H      0.249490000000     0.858300000000     0.911790000000     0.135381   
H113     H      0.206790000000     0.039720000000     0.497780000000     0.135754   
H114     H      0.268630000000     0.505220000000     0.487640000000     0.135657   
H115     H      0.019840000000     0.878670000000     0.670320000000     0.136829   
H116     H      0.478270000000     0.910290000000     0.608400000000     0.135366   
H117     H      0.124650000000     0.861340000000     0.485850000000     0.135917   
H118     H      0.116550000000     0.917120000000     0.531180000000     0.134969   
H119     H      0.110330000000     0.739560000000     0.625200000000     0.135202   
H120     H      0.157930000000     0.792440000000     0.625490000000     0.135233   
H121     H      0.010100000000     0.677560000000     0.875990000000     0.135235   
H122     H      0.522590000000     0.629500000000     0.917370000000     0.134254   
H123     H      0.339840000000     0.653360000000     0.507890000000     0.135667   
H124     H      0.396030000000     0.614420000000     0.525860000000     0.135732   
H125     H      0.408310000000     0.766550000000     0.868770000000     0.13706    
H126     H      0.368830000000     0.776390000000     0.927210000000     0.135067   
H127     H      0.005380000000     0.788880000000     0.488050000000     0.135048   
H128     H      0.463860000000     0.770510000000     0.544430000000     0.135069   
H129     H      0.532110000000     0.023980000000     0.236680000000     0.136163   
H130     H      0.975240000000     0.503590000000     0.287190000000     0.136442   
H131     H      0.858030000000     0.369650000000     0.286470000000    -0.113344   
H132     H      0.885820000000     0.415140000000     0.245000000000    -0.102252   
H133     H      0.611510000000     0.176930000000     0.267440000000     0.135895   
H134     H      0.661430000000     0.126660000000     0.273220000000     0.135351   
H135     H      0.734090000000     0.286330000000     0.279940000000     0.135177   
H136     H      0.790920000000     0.247080000000     0.264990000000     0.137102   
H137     H      0.829950000000     0.495890000000     0.144510000000     0.135822   
H138     H      0.867480000000     0.030390000000     0.157350000000     0.13609    
H139     H      0.727700000000     0.112700000000     0.139870000000     0.13559    
H140     H      0.780010000000     0.160660000000     0.139310000000     0.135672   
H141     H      0.596660000000     0.479960000000     0.384550000000     0.135079   
H142     H      0.635470000000     0.051450000000     0.400950000000     0.135826   
H143     H      0.741650000000     0.402320000000     0.365130000000     0.136632   
H144     H      0.759220000000     0.362640000000     0.422610000000     0.135543   
H145     H      0.707550000000     0.518780000000     0.030660000000     0.136286   
H146     H      0.729620000000     0.993600000000     0.028210000000     0.134909   
H147     H      0.530860000000     0.382950000000     0.163700000000     0.136037   
H148     H      0.966220000000     0.406780000000     0.104790000000     0.136596   
H149     H      0.646790000000     0.358000000000     0.011000000000     0.135934   
H150     H      0.591550000000     0.402310000000     0.010440000000     0.136475   
H151     H      0.609000000000     0.233520000000     0.142120000000     0.135413   
H152     H      0.659900000000     0.281340000000     0.128950000000     0.136054   
H153     H      0.479600000000     0.153400000000     0.358760000000     0.136073   
H154     H      0.018040000000     0.127440000000     0.414890000000     0.13556    
H155     H      0.837060000000     0.150340000000     0.998320000000     0.134581   
H156     H      0.894350000000     0.113160000000     0.016250000000     0.135406   
H157     H      0.908410000000     0.284330000000     0.399300000000     0.135134   
H158     H      0.860560000000     0.231710000000     0.395430000000     0.136039   
H159     H      0.524220000000     0.246070000000     0.997380000000     0.132921   
H160     H      0.961300000000     0.271970000000     0.030280000000     0.136174   
H161     H      0.517550000000     0.012050000000     0.736130000000     0.136291   
H162     H      0.973070000000     0.540210000000     0.778790000000     0.135511   
H163     H      0.861390000000     0.382970000000     0.782900000000    -0.110094   
H164     H      0.894280000000     0.426350000000     0.743470000000    -0.116198   
H165     H      0.596230000000     0.163790000000     0.737280000000     0.135733   
H166     H      0.650200000000     0.135030000000     0.772850000000     0.135932   
H167     H      0.731220000000     0.273350000000     0.788740000000     0.135748   
H168     H      0.784820000000     0.268790000000     0.742980000000     0.135979   
H169     H      0.842740000000     0.503130000000     0.647150000000     0.137433   
H170     H      0.892990000000     0.044310000000     0.657400000000     0.135713   
H171     H      0.734820000000     0.110120000000     0.658330000000     0.135435   
H172     H      0.766960000000     0.167110000000     0.628500000000     0.135347   
H173     H      0.595170000000     0.489360000000     0.882840000000     0.135266   
H174     H      0.625500000000     0.053970000000     0.888200000000     0.135895   
H175     H      0.722610000000     0.392380000000     0.861130000000     0.136208   
H176     H      0.772090000000     0.397020000000     0.911610000000     0.135758   
H177     H      0.722830000000     0.498150000000     0.537400000000     0.135951   
H178     H      0.770680000000     0.991800000000     0.505220000000     0.133064   
H179     H      0.497810000000     0.361360000000     0.665220000000     0.136192   
H180     H      0.968730000000     0.392550000000     0.618900000000     0.136005   
H181     H      0.633560000000     0.350360000000     0.499080000000     0.135393   
H182     H      0.606870000000     0.408560000000     0.532180000000     0.136048   
H183     H      0.614090000000     0.234120000000     0.620760000000     0.135149   
H184     H      0.639970000000     0.295430000000     0.648570000000     0.135182   
H185     H      0.484160000000     0.166910000000     0.857350000000     0.135389   
H186     H      0.976990000000     0.143950000000     0.862890000000     0.13573    
H187     H      0.844950000000     0.142180000000     0.509960000000     0.136058   
H188     H      0.901390000000     0.106430000000     0.532870000000     0.135387   
H189     H      0.897570000000     0.294980000000     0.889270000000     0.13637    
H190     H      0.848920000000     0.243190000000     0.884760000000     0.135298   
H191     H      0.500120000000     0.278410000000     0.486590000000     0.135291   
H192     H      0.969020000000     0.264500000000     0.543150000000     0.135761   
H193     H      0.528340000000     0.509350000000     0.245000000000     0.135706   
H194     H      0.008340000000     0.983780000000     0.267640000000     0.134805   
H195     H      0.853580000000     0.876740000000     0.279530000000    -0.107639   
H196     H      0.892470000000     0.913820000000     0.239610000000    -0.104608   
H197     H      0.599150000000     0.667370000000     0.274750000000     0.136302   
H198     H      0.652480000000     0.621310000000     0.282940000000     0.135522   
H199     H      0.723360000000     0.786990000000     0.290550000000     0.13459    
H200     H      0.780220000000     0.765010000000     0.255110000000     0.137239   
H201     H      0.874020000000     0.987430000000     0.099780000000     0.134564   
H202     H      0.878830000000     0.547530000000     0.146520000000     0.135733   
H203     H      0.717020000000     0.644660000000     0.121820000000     0.13531    
H204     H      0.767250000000     0.639240000000     0.171460000000     0.135287   
H205     H      0.597300000000     0.993690000000     0.382440000000     0.132819   
H206     H      0.628460000000     0.539520000000     0.409170000000     0.135269   
H207     H      0.744100000000     0.921980000000     0.365530000000     0.135528   
H208     H      0.754260000000     0.873520000000     0.418050000000     0.135671   
H209     H      0.746670000000     0.034610000000     0.971490000000     0.134725   
H210     H      0.763380000000     0.512470000000     0.988020000000     0.13383    
H211     H      0.539140000000     0.902060000000     0.159300000000     0.135784   
H212     H      0.004190000000     0.909040000000     0.108220000000     0.134779   
H213     H      0.602650000000     0.921990000000     0.013850000000     0.135016   
H214     H      0.636000000000     0.862220000000     0.991890000000     0.133784   
H215     H      0.661310000000     0.790060000000     0.139000000000     0.135154   
H216     H      0.611450000000     0.739910000000     0.146130000000     0.136338   
H217     H      0.471210000000     0.636460000000     0.369580000000     0.135475   
H218     H      0.018510000000     0.640040000000     0.412900000000     0.13558    
H219     H      0.836920000000     0.664530000000     0.013470000000     0.135748   
H220     H      0.891630000000     0.625230000000     0.034880000000     0.136399   
H221     H      0.902510000000     0.796100000000     0.393490000000     0.135257   
H222     H      0.857190000000     0.741340000000     0.387120000000     0.135611   
H223     H      0.501410000000     0.748330000000     0.051180000000     0.135851   
H224     H      0.972930000000     0.779230000000     0.027210000000     0.134994   
H225     H      0.524930000000     0.519370000000     0.730630000000     0.134961   
H226     H      0.990670000000     0.011530000000     0.798720000000     0.13638    
H227     H      0.862420000000     0.874730000000     0.788370000000    -0.107896   
H228     H      0.898440000000     0.918010000000     0.751670000000    -0.109727   
H229     H      0.603350000000     0.672570000000     0.764330000000     0.136088   
H230     H      0.650040000000     0.619380000000     0.755600000000     0.136015   
H231     H      0.730320000000     0.766820000000     0.793250000000     0.134555   
H232     H      0.779060000000     0.774390000000     0.742350000000     0.136914   
H233     H      0.851800000000     0.986200000000     0.650300000000     0.135091   
H234     H      0.896670000000     0.544130000000     0.626390000000     0.135047   
H235     H      0.721330000000     0.641530000000     0.611200000000     0.135338   
H236     H      0.774640000000     0.648940000000     0.656940000000     0.135621   
H237     H      0.593450000000     0.993840000000     0.865210000000     0.133454   
H238     H      0.642310000000     0.542730000000     0.885720000000     0.134669   
H239     H      0.726210000000     0.900800000000     0.852360000000     0.136304   
H240     H      0.754950000000     0.877990000000     0.913870000000     0.134975   
H241     H      0.714170000000     0.028080000000     0.527130000000     0.135913   
H242     H      0.766330000000     0.511500000000     0.482800000000     0.134789   
H243     H      0.501790000000     0.877820000000     0.667970000000     0.135773   
H244     H      0.988320000000     0.912570000000     0.615670000000     0.134987   
H245     H      0.624360000000     0.863510000000     0.494710000000     0.135905   
H246     H      0.615030000000     0.917620000000     0.541740000000     0.134638   
H247     H      0.604870000000     0.740230000000     0.634540000000     0.135419   
H248     H      0.651220000000     0.794260000000     0.638460000000     0.134487   
H249     H      0.479540000000     0.642850000000     0.862390000000     0.136827   
H250     H      0.981420000000     0.615720000000     0.899210000000     0.135518   
H251     H      0.844020000000     0.663650000000     0.512520000000     0.135838   
H252     H      0.893310000000     0.612280000000     0.511580000000     0.136123   
H253     H      0.895620000000     0.794010000000     0.899830000000     0.136291   
H254     H      0.857610000000     0.735740000000     0.882550000000     0.135012   
H255     H      0.510320000000     0.780000000000     0.491770000000     0.135492   
H256     H      0.970840000000     0.763030000000     0.544860000000     0.135034   
N1       N      0.004970000000     0.028780000000     0.244560000000    -0.158297   
N2       N      0.487110000000     0.502410000000     0.270990000000    -0.158828   
N3       N      0.358480000000     0.383300000000     0.266600000000    -0.0917558  
N4       N      0.390140000000     0.383200000000     0.261870000000    -0.0916181  
N5       N      0.104940000000     0.154210000000     0.266420000000    -0.159285   
N6       N      0.116340000000     0.149600000000     0.235690000000    -0.159132   
N7       N      0.226720000000     0.264640000000     0.262210000000    -0.159242   
N8       N      0.258830000000     0.263380000000     0.264140000000    -0.159373   
N9       N      0.359520000000     0.011960000000     0.143560000000    -0.157549   
N10      N      0.396080000000     0.508140000000     0.143980000000    -0.158379   
N11      N      0.250530000000     0.130710000000     0.148030000000    -0.159231   
N12      N      0.239080000000     0.160320000000     0.137860000000    -0.15946    
N13      N      0.114540000000     0.498540000000     0.381520000000    -0.159194   
N14      N      0.117690000000     0.023060000000     0.357500000000    -0.158135   
N15      N      0.240060000000     0.405090000000     0.382790000000    -0.159119   
N16      N      0.244860000000     0.371990000000     0.384750000000    -0.158917   
N17      N      0.223450000000     0.515930000000     0.503330000000    -0.159704   
N18      N      0.247520000000     0.029340000000     0.023210000000    -0.158333   
N19      N      0.003130000000     0.392230000000     0.134290000000    -0.159114   
N20      N      0.486260000000     0.378870000000     0.143780000000    -0.158919   
N21      N      0.133130000000     0.390820000000     0.506570000000    -0.159506   
N22      N      0.100910000000     0.403730000000     0.013350000000    -0.158846   
N23      N      0.100120000000     0.270790000000     0.121200000000    -0.158983   
N24      N      0.129530000000     0.277790000000     0.132760000000    -0.159533   
N25      N      0.989950000000     0.127550000000     0.373770000000    -0.159268   
N26      N      0.496590000000     0.145280000000     0.405230000000    -0.159196   
N27      N      0.369940000000     0.132570000000     0.039750000000    -0.159723   
N28      N      0.370370000000     0.128600000000     0.502020000000    -0.159543   
N29      N      0.367080000000     0.277170000000     0.389200000000    -0.158691   
N30      N      0.370020000000     0.243780000000     0.389340000000    -0.158921   
N31      N      0.001480000000     0.278030000000     0.002410000000    -0.157783   
N32      N      0.470000000000     0.256160000000     0.519350000000    -0.159291   
N33      N      0.027120000000     0.024180000000     0.767810000000    -0.159069   
N34      N      0.495240000000     0.497600000000     0.764180000000    -0.158594   
N35      N      0.366230000000     0.399670000000     0.782410000000    -0.0919033  
N36      N      0.376980000000     0.394770000000     0.751690000000    -0.0915199  
N37      N      0.116730000000     0.157230000000     0.775270000000    -0.159218   
N38      N      0.147790000000     0.154310000000     0.767050000000    -0.159194   
N39      N      0.237150000000     0.281120000000     0.766970000000    -0.158908   
N40      N      0.268720000000     0.278270000000     0.772780000000    -0.159135   
N41      N      0.338030000000     0.022090000000     0.638070000000    -0.158665   
N42      N      0.375740000000     0.518700000000     0.653610000000    -0.159378   
N43      N      0.233050000000     0.133620000000     0.628620000000    -0.158845   
N44      N      0.244670000000     0.161090000000     0.643420000000    -0.159107   
N45      N      0.123340000000     0.513320000000     0.890180000000    -0.158978   
N46      N      0.133700000000     0.034650000000     0.887070000000    -0.159012   
N47      N      0.241900000000     0.415590000000     0.889810000000    -0.158981   
N48      N      0.251660000000     0.384260000000     0.896040000000    -0.159109   
N49      N      0.235470000000     0.521900000000     0.015630000000    -0.158115   
N50      N      0.247480000000     0.012830000000     0.505400000000    -0.158037   
N51      N      0.013980000000     0.398800000000     0.636520000000    -0.159149   
N52      N      0.487410000000     0.400380000000     0.634810000000    -0.159185   
N53      N      0.132540000000     0.400220000000     0.008250000000    -0.15792    
N54      N      0.101190000000     0.391000000000     0.510590000000    -0.159081   
N55      N      0.108400000000     0.271550000000     0.637590000000    -0.158903   
N56      N      0.140360000000     0.274280000000     0.640370000000    -0.159159   
N57      N      0.013490000000     0.134880000000     0.895010000000    -0.159352   
N58      N      0.490280000000     0.140850000000     0.900100000000    -0.159471   
N59      N      0.340190000000     0.136050000000     0.510860000000    -0.159108   
N60      N      0.377540000000     0.127550000000     0.007870000000    -0.156239   
N61      N      0.376470000000     0.283170000000     0.893990000000    -0.159178   
N62      N      0.368730000000     0.252400000000     0.904490000000    -0.159831   
N63      N      0.011190000000     0.266280000000     0.517940000000    -0.159186   
N64      N      0.481080000000     0.251270000000     0.020240000000    -0.157704   
N65      N      0.008530000000     0.520960000000     0.254780000000    -0.159018   
N66      N      0.496390000000     0.009030000000     0.267580000000    -0.157721   
N67      N      0.371530000000     0.896900000000     0.275290000000    -0.091664   
N68      N      0.397510000000     0.890580000000     0.257060000000    -0.0914261  
N69      N      0.110430000000     0.645890000000     0.266950000000    -0.15972    
N70      N      0.140280000000     0.637420000000     0.257880000000    -0.159272   
N71      N      0.243180000000     0.762630000000     0.270950000000    -0.159421   
N72      N      0.271970000000     0.775810000000     0.263900000000    -0.159267   
N73      N      0.364010000000     0.509320000000     0.141150000000    -0.159161   
N74      N      0.390510000000     0.018280000000     0.150020000000    -0.157227   
N75      N      0.265530000000     0.643190000000     0.127680000000    -0.159321   
N76      N      0.262550000000     0.643260000000     0.160740000000    -0.159091   
N77      N      0.108970000000     0.997750000000     0.377330000000    -0.15994    
N78      N      0.112540000000     0.531990000000     0.380630000000    -0.159423   
N79      N      0.236170000000     0.902700000000     0.376130000000    -0.158955   
N80      N      0.259430000000     0.883070000000     0.388360000000    -0.158837   
N81      N      0.218350000000     0.018610000000     0.492530000000    -0.157875   
N82      N      0.267680000000     0.521910000000     0.015100000000    -0.157601   
N83      N      0.007140000000     0.866450000000     0.135460000000    -0.159234   
N84      N      0.496590000000     0.901140000000     0.134790000000    -0.159022   
N85      N      0.127070000000     0.884690000000     0.493980000000    -0.159733   
N86      N      0.120650000000     0.870040000000     0.008840000000    -0.158091   
N87      N      0.136790000000     0.776850000000     0.136580000000    -0.159082   
N88      N      0.138610000000     0.743690000000     0.141130000000    -0.159519   
N89      N      0.991900000000     0.637790000000     0.370770000000    -0.159061   
N90      N      0.497690000000     0.643570000000     0.411230000000    -0.159552   
N91      N      0.385330000000     0.635560000000     0.036460000000    -0.159194   
N92      N      0.383960000000     0.633260000000     0.515660000000    -0.15935    
N93      N      0.381570000000     0.781530000000     0.387870000000    -0.158911   
N94      N      0.377150000000     0.749140000000     0.395170000000    -0.15883    
N95      N      0.014800000000     0.753430000000     0.024100000000    -0.158859   
N96      N      0.473970000000     0.766530000000     0.522450000000    -0.15888    
N97      N      0.017670000000     0.532870000000     0.759870000000    -0.159101   
N98      N      0.473530000000     0.018910000000     0.756640000000    -0.15735    
N99      N      0.370670000000     0.894400000000     0.779330000000    -0.0926457  
N100     N      0.371580000000     0.897300000000     0.746430000000    -0.0912833  
N101     N      0.114060000000     0.654210000000     0.760100000000    -0.15931    
N102     N      0.146220000000     0.654590000000     0.759510000000    -0.159207   
N103     N      0.241660000000     0.773000000000     0.764360000000    -0.158763   
N104     N      0.271530000000     0.765850000000     0.774480000000    -0.159423   
N105     N      0.351080000000     0.508210000000     0.634970000000    -0.159405   
N106     N      0.369650000000     0.026420000000     0.642490000000    -0.159398   
N107     N      0.245230000000     0.625260000000     0.633540000000    -0.159552   
N108     N      0.252920000000     0.656910000000     0.641090000000    -0.159925   
N109     N      0.130180000000     0.001800000000     0.892610000000    -0.156532   
N110     N      0.122530000000     0.546750000000     0.887700000000    -0.159187   
N111     N      0.250820000000     0.904210000000     0.890290000000    -0.159242   
N112     N      0.259280000000     0.872060000000     0.893910000000    -0.158882   
N113     N      0.251470000000     0.997350000000     0.014160000000    -0.158692   
N114     N      0.255580000000     0.517680000000     0.504170000000    -0.159213   
N115     N      0.014470000000     0.883380000000     0.646750000000    -0.159385   
N116     N      0.479870000000     0.905790000000     0.632590000000    -0.159023   
N117     N      0.129970000000     0.901650000000     0.014280000000    -0.158007   
N118     N      0.114490000000     0.893660000000     0.523250000000    -0.158958   
N119     N      0.118870000000     0.762430000000     0.621130000000    -0.159485   
N120     N      0.147980000000     0.770950000000     0.632490000000    -0.158836   
N121     N      0.007230000000     0.652930000000     0.877750000000    -0.159435   
N122     N      0.504290000000     0.640280000000     0.905680000000    -0.159044   
N123     N      0.352020000000     0.635150000000     0.519050000000    -0.159178   
N124     N      0.388820000000     0.636570000000     0.003470000000    -0.156377   
N125     N      0.389440000000     0.774560000000     0.881630000000    -0.159059   
N126     N      0.386480000000     0.766580000000     0.913750000000    -0.159111   
N127     N      0.001020000000     0.785140000000     0.512010000000    -0.159091   
N128     N      0.508680000000     0.764460000000     0.004030000000    -0.156236   
N129     N      0.522780000000     0.026270000000     0.259260000000    -0.159147   
N130     N      0.982140000000     0.503980000000     0.263590000000    -0.158246   
N131     N      0.868020000000     0.393890000000     0.281820000000    -0.0925947  
N132     N      0.878860000000     0.390070000000     0.250980000000    -0.0912371  
N133     N      0.620870000000     0.154870000000     0.273470000000    -0.159302   
N134     N      0.651180000000     0.147530000000     0.264990000000    -0.158975   
N135     N      0.746750000000     0.268090000000     0.269420000000    -0.159016   
N136     N      0.778130000000     0.264880000000     0.276050000000    -0.159064   
N137     N      0.865620000000     0.006510000000     0.113000000000    -0.157933   
N138     N      0.869440000000     0.525040000000     0.150650000000    -0.159227   
N139     N      0.749010000000     0.121920000000     0.133480000000    -0.159344   
N140     N      0.758430000000     0.151760000000     0.145090000000    -0.15883    
N141     N      0.613110000000     0.492970000000     0.396910000000    -0.159642   
N142     N      0.618840000000     0.038870000000     0.388400000000    -0.159288   
N143     N      0.741070000000     0.395110000000     0.388710000000    -0.158962   
N144     N      0.760260000000     0.370360000000     0.399200000000    -0.158926   
N145     N      0.730750000000     0.497170000000     0.514160000000    -0.159567   
N146     N      0.740870000000     0.011830000000     0.016120000000    -0.157016   
N147     N      0.517820000000     0.372630000000     0.145760000000    -0.15868    
N148     N      0.975420000000     0.407790000000     0.127520000000    -0.158937   
N149     N      0.630030000000     0.374570000000     0.503410000000    -0.159154   
N150     N      0.604360000000     0.382340000000     0.016880000000    -0.159297   
N151     N      0.618900000000     0.254090000000     0.132760000000    -0.15917    
N152     N      0.649720000000     0.261330000000     0.139170000000    -0.159206   
N153     N      0.496770000000     0.142580000000     0.372110000000    -0.159328   
N154     N      0.997280000000     0.134970000000     0.405270000000    -0.159031   
N155     N      0.849800000000     0.132810000000     0.009850000000    -0.157955   
N156     N      0.889230000000     0.124060000000     0.520830000000    -0.159078   
N157     N      0.887510000000     0.273940000000     0.393300000000    -0.158917   
N158     N      0.880750000000     0.242630000000     0.402930000000    -0.158778   
N159     N      0.512680000000     0.256360000000     0.016400000000    -0.157848   
N160     N      0.981000000000     0.256140000000     0.523500000000    -0.159158   
N161     N      0.505210000000     0.023950000000     0.753630000000    -0.159114   
N162     N      0.985770000000     0.528640000000     0.761340000000    -0.158454   
N163     N      0.862590000000     0.405440000000     0.768530000000    -0.0911707  
N164     N      0.893270000000     0.404830000000     0.759240000000    -0.0919249  
N165     N      0.607190000000     0.149180000000     0.753720000000    -0.15916    
N166     N      0.639230000000     0.149930000000     0.756680000000    -0.159119   
N167     N      0.742780000000     0.266270000000     0.768350000000    -0.15917    
N168     N      0.773130000000     0.276140000000     0.763210000000    -0.158982   
N169     N      0.859130000000     0.009530000000     0.646260000000    -0.157275   
N170     N      0.885530000000     0.526010000000     0.638760000000    -0.158596   
N171     N      0.750490000000     0.121840000000     0.643810000000    -0.159514   
N172     N      0.751710000000     0.155360000000     0.643480000000    -0.159543   
N173     N      0.615630000000     0.500400000000     0.889340000000    -0.159347   
N174     N      0.610160000000     0.040550000000     0.874790000000    -0.158975   
N175     N      0.732080000000     0.398660000000     0.882880000000    -0.159164   
N176     N      0.762530000000     0.390510000000     0.889960000000    -0.158997   
N177     N      0.720070000000     0.510960000000     0.011150000000    -0.157982   
N178     N      0.758260000000     0.008290000000     0.518500000000    -0.158025   
N179     N      0.500370000000     0.370690000000     0.642520000000    -0.158765   
N180     N      0.982330000000     0.404670000000     0.635230000000    -0.158553   
N181     N      0.634310000000     0.378430000000     0.005360000000    -0.158259   
N182     N      0.609480000000     0.384380000000     0.527050000000    -0.159228   
N183     N      0.615860000000     0.258660000000     0.624380000000    -0.159505   
N184     N      0.637880000000     0.270860000000     0.645400000000    -0.159483   
N185     N      0.494680000000     0.147220000000     0.867800000000    -0.159394   
N186     N      0.984850000000     0.147160000000     0.885950000000    -0.159186   
N187     N      0.857170000000     0.125580000000     0.523300000000    -0.159082   
N188     N      0.881730000000     0.131410000000     0.005730000000    -0.157782   
N189     N      0.876840000000     0.284750000000     0.882420000000    -0.158949   
N190     N      0.869490000000     0.253560000000     0.891920000000    -0.159003   
N191     N      0.494940000000     0.275320000000     0.510460000000    -0.159323   
N192     N      0.972450000000     0.265390000000     0.009480000000    -0.157783   
N193     N      0.516720000000     0.514560000000     0.265900000000    -0.158712   
N194     N      0.998810000000     0.996140000000     0.248640000000    -0.159613   
N195     N      0.867520000000     0.898720000000     0.274750000000    -0.0917746  
N196     N      0.876080000000     0.893540000000     0.243320000000    -0.09181    
N197     N      0.610060000000     0.646350000000     0.281640000000    -0.159759   
N198     N      0.641310000000     0.641850000000     0.275170000000    -0.159284   
N199     N      0.735830000000     0.774350000000     0.273670000000    -0.159026   
N200     N      0.767750000000     0.778150000000     0.271620000000    -0.158878   
N201     N      0.840440000000     0.517370000000     0.138380000000    -0.158701   
N202     N      0.875290000000     0.010860000000     0.144390000000    -0.157355   
N203     N      0.737940000000     0.637360000000     0.131260000000    -0.15969    
N204     N      0.746660000000     0.647140000000     0.161720000000    -0.159513   
N205     N      0.615400000000     0.005860000000     0.393080000000    -0.15633    
N206     N      0.613220000000     0.526450000000     0.395300000000    -0.159232   
N207     N      0.740870000000     0.911460000000     0.387620000000    -0.158856   
N208     N      0.757050000000     0.883630000000     0.395710000000    -0.159018   
N209     N      0.726460000000     0.011140000000     0.514290000000    -0.157978   
N210     N      0.750880000000     0.520040000000     0.007640000000    -0.157609   
N211     N      0.527440000000     0.893030000000     0.139760000000    -0.159598   
N212     N      0.996690000000     0.897420000000     0.128590000000    -0.158383   
N213     N      0.626640000000     0.886530000000     0.503770000000    -0.159444   
N214     N      0.621230000000     0.875730000000     0.005880000000    -0.158116   
N215     N      0.639790000000     0.779800000000     0.135720000000    -0.159077   
N216     N      0.632340000000     0.750990000000     0.150830000000    -0.159482   
N217     N      0.491780000000     0.631240000000     0.380960000000    -0.159345   
N218     N      0.998200000000     0.647150000000     0.402020000000    -0.159467   
N219     N      0.848130000000     0.645390000000     0.024150000000    -0.158857   
N220     N      0.883670000000     0.634590000000     0.507110000000    -0.159315   
N221     N      0.882340000000     0.784810000000     0.386490000000    -0.159408   
N222     N      0.876770000000     0.753000000000     0.395230000000    -0.159147   
N223     N      0.513270000000     0.764420000000     0.036910000000    -0.159031   
N224     N      0.977590000000     0.764150000000     0.521240000000    -0.159013   
N225     N      0.518580000000     0.518450000000     0.754380000000    -0.159045   
N226     N      0.999280000000     0.009410000000     0.775820000000    -0.157797   
N227     N      0.867890000000     0.899490000000     0.779980000000    -0.0917153  
N228     N      0.893330000000     0.893450000000     0.760880000000    -0.0917697  
N229     N      0.612400000000     0.649670000000     0.766600000000    -0.158949   
N230     N      0.641020000000     0.642300000000     0.753320000000    -0.15918    
N231     N      0.740260000000     0.763990000000     0.771010000000    -0.158743   
N232     N      0.769110000000     0.777360000000     0.764570000000    -0.159323   
N233     N      0.853940000000     0.521020000000     0.634510000000    -0.159177   
N234     N      0.886320000000     0.020600000000     0.660250000000    -0.159008   
N235     N      0.743170000000     0.637380000000     0.620280000000    -0.159465   
N236     N      0.752590000000     0.652630000000     0.648210000000    -0.159395   
N237     N      0.609570000000     0.007170000000     0.877700000000    -0.155916   
N238     N      0.622210000000     0.531370000000     0.878630000000    -0.159434   
N239     N      0.729500000000     0.899780000000     0.876750000000    -0.159521   
N240     N      0.752830000000     0.880560000000     0.889450000000    -0.159058   
N241     N      0.735120000000     0.016720000000     0.983790000000    -0.158428   
N242     N      0.757480000000     0.513710000000     0.505590000000    -0.159278   
N243     N      0.500110000000     0.882290000000     0.643790000000    -0.15908    
N244     N      0.993440000000     0.907590000000     0.639240000000    -0.158451   
N245     N      0.618020000000     0.908630000000     0.000400000000    -0.158293   
N246     N      0.612650000000     0.894650000000     0.532600000000    -0.158932   
N247     N      0.613230000000     0.763290000000     0.631210000000    -0.159583   
N248     N      0.642070000000     0.771820000000     0.643340000000    -0.159281   
N249     N      0.499070000000     0.633950000000     0.873500000000    -0.1596     
N250     N      0.985020000000     0.640290000000     0.898240000000    -0.159347   
N251     N      0.853780000000     0.641470000000     0.517330000000    -0.159054   
N252     N      0.880100000000     0.642520000000     0.021760000000    -0.160016   
N253     N      0.877910000000     0.781460000000     0.888950000000    -0.159283   
N254     N      0.874770000000     0.748500000000     0.894130000000    -0.158712   
N255     N      0.501840000000     0.781400000000     0.514780000000    -0.158785   
N256     N      0.983810000000     0.759440000000     0.017370000000    -0.157682   
O1       O      0.463560000000     0.236050000000     0.469590000000    -0.233356   
O2       O      0.474010000000     0.163030000000     0.450380000000    -0.231821   
O3       O      0.404250000000     0.243160000000     0.430320000000    -0.233362   
O4       O      0.379150000000     0.177590000000     0.480250000000    -0.233404   
O5       O      0.415000000000     0.142610000000     0.478070000000    -0.234137   
O6       O      0.390480000000     0.198440000000     0.409930000000    -0.232601   
O7       O      0.433740000000     0.219390000000     0.506430000000    -0.235136   
O8       O      0.452700000000     0.174980000000     0.406220000000    -0.232552   
O9       O      0.056470000000     0.385710000000     0.035050000000    -0.235608   
O10      O      0.095600000000     0.318330000000     0.095210000000    -0.22713    
O11      O      0.043100000000     0.307390000000     0.016610000000    -0.236686   
O12      O      0.007180000000     0.370140000000     0.085030000000    -0.229534   
O13      O      0.042940000000     0.361120000000     0.118670000000    -0.238068   
O14      O      0.005170000000     0.305680000000     0.048890000000    -0.229147   
O15      O      0.096980000000     0.357400000000     0.041570000000    -0.228677   
O16      O      0.057620000000     0.285720000000     0.093880000000    -0.235676   
O17      O      0.203060000000     0.405110000000     0.420970000000    -0.23177    
O18      O      0.222990000000     0.478210000000     0.464440000000    -0.233727   
O19      O      0.175820000000     0.410670000000     0.482930000000    -0.233709   
O20      O      0.136660000000     0.453660000000     0.401630000000    -0.233869   
O21      O      0.152560000000     0.499060000000     0.418550000000    -0.233621   
O22      O      0.132210000000     0.429130000000     0.468210000000    -0.233411   
O23      O      0.215880000000     0.449890000000     0.400080000000    -0.23388    
O24      O      0.179960000000     0.493920000000     0.483390000000    -0.235102   
O25      O      0.342570000000     0.119200000000     0.083390000000    -0.232334   
O26      O      0.353660000000     0.057020000000     0.113900000000    -0.234996   
O27      O      0.262180000000     0.072070000000     0.052620000000    -0.235247   
O28      O      0.278270000000     0.085870000000     0.137820000000    -0.23504    
O29      O      0.276260000000     0.122030000000     0.101960000000    -0.231232   
O30      O      0.289740000000     0.029750000000     0.055200000000    -0.230886   
O31      O      0.337330000000     0.089950000000     0.041980000000    -0.234401   
O32      O      0.314500000000     0.026710000000     0.120590000000    -0.228299   
O33      O      0.211400000000     0.168690000000     0.182890000000    -0.231332   
O34      O      0.144830000000     0.195330000000     0.236150000000    -0.231662   
O35      O      0.133300000000     0.231150000000     0.160400000000    -0.235787   
O36      O      0.224250000000     0.229910000000     0.220700000000    -0.234819   
O37      O      0.182360000000     0.250490000000     0.237820000000    -0.231972   
O38      O      0.170930000000     0.263990000000     0.162370000000    -0.234171   
O39      O      0.208640000000     0.203550000000     0.145690000000    -0.235203   
O40      O      0.145490000000     0.166190000000     0.194350000000    -0.232757   
O41      O      0.282050000000     0.371900000000     0.346750000000    -0.229075   
O42      O      0.354940000000     0.345500000000     0.301200000000    -0.22992    
O43      O      0.261150000000     0.301770000000     0.302270000000    -0.23387    
O44      O      0.331760000000     0.277050000000     0.349310000000    -0.231409   
O45      O      0.345590000000     0.322180000000     0.368740000000    -0.232581   
O46      O      0.303370000000     0.282230000000     0.285000000000    -0.233352   
O47      O      0.268950000000     0.327130000000     0.367540000000    -0.23405    
O48      O      0.311390000000     0.367330000000     0.286370000000    -0.252524   
O49      O      0.485610000000     0.474760000000     0.224340000000    -0.227845   
O50      O      0.393990000000     0.422490000000     0.228960000000    -0.222431   
O51      O      0.486520000000     0.414450000000     0.184790000000    -0.228109   
O52      O      0.439020000000     0.486890000000     0.165980000000    -0.236458   
O53      O      0.395590000000     0.468030000000     0.180660000000    -0.224473   
O54      O      0.443880000000     0.404910000000     0.161320000000    -0.237716   
O55      O      0.445820000000     0.474140000000     0.254130000000    -0.23708    
O56      O      0.437230000000     0.398460000000     0.241610000000    -0.255282   
O57      O      0.030700000000     0.033370000000     0.291410000000    -0.232063   
O58      O      0.105130000000     0.064260000000     0.325070000000    -0.236855   
O59      O      0.003480000000     0.106690000000     0.326130000000    -0.2365     
O60      O      0.077570000000     0.135830000000     0.308460000000    -0.23461    
O61      O      0.082980000000     0.104850000000     0.268340000000    -0.230167   
O62      O      0.036650000000     0.105220000000     0.363480000000    -0.232967   
O63      O      0.025390000000     0.075210000000     0.262590000000    -0.230589   
O64      O      0.068440000000     0.038140000000     0.346820000000    -0.229027   
O65      O      0.477220000000     0.219430000000     0.976540000000    -0.23407    
O66      O      0.467670000000     0.152550000000     0.947080000000    -0.235046   
O67      O      0.415180000000     0.243470000000     0.927810000000    -0.235315   
O68      O      0.404910000000     0.173820000000     0.004410000000    -0.227395   
O69      O      0.400730000000     0.144710000000     0.962820000000    -0.230557   
O70      O      0.381120000000     0.206720000000     0.930390000000    -0.237013   
O71      O      0.436440000000     0.229190000000     0.003230000000    -0.227763   
O72      O      0.455810000000     0.181340000000     0.906830000000    -0.234036   
O73      O      0.058640000000     0.372550000000     0.535610000000    -0.237083   
O74      O      0.104860000000     0.311730000000     0.601290000000    -0.227954   
O75      O      0.052930000000     0.295300000000     0.532000000000    -0.238386   
O76      O      0.012670000000     0.360830000000     0.597700000000    -0.229394   
O77      O      0.055990000000     0.372140000000     0.618930000000    -0.238164   
O78      O      0.012640000000     0.299460000000     0.560890000000    -0.227953   
O79      O      0.102220000000     0.353000000000     0.549250000000    -0.227394   
O80      O      0.063440000000     0.288520000000     0.616150000000    -0.236792   
O81      O      0.212170000000     0.418220000000     0.934130000000    -0.228704   
O82      O      0.231310000000     0.487430000000     0.973990000000    -0.23559    
O83      O      0.176920000000     0.417640000000     0.986050000000    -0.231458   
O84      O      0.143100000000     0.468180000000     0.912000000000    -0.234196   
O85      O      0.160890000000     0.513180000000     0.927990000000    -0.23197    
O86      O      0.136320000000     0.445350000000     0.978130000000    -0.232785   
O87      O      0.215420000000     0.459880000000     0.904740000000    -0.234165   
O88      O      0.190050000000     0.503470000000     0.996340000000    -0.235948   
O89      O      0.296490000000     0.123110000000     0.537170000000    -0.235379   
O90      O      0.334710000000     0.061450000000     0.600930000000    -0.229493   
O91      O      0.286500000000     0.027510000000     0.537830000000    -0.235694   
O92      O      0.240400000000     0.090490000000     0.596740000000    -0.230145   
O93      O      0.278910000000     0.121080000000     0.605840000000    -0.234279   
O94      O      0.247450000000     0.058460000000     0.534980000000    -0.230919   
O95      O      0.334760000000     0.091150000000     0.540880000000    -0.229662   
O96      O      0.294000000000     0.035040000000     0.612270000000    -0.234339   
O97      O      0.199450000000     0.173290000000     0.667880000000    -0.234482   
O98      O      0.147310000000     0.197870000000     0.734540000000    -0.228955   
O99      O      0.144060000000     0.235090000000     0.677750000000    -0.229551   
O100     O      0.236340000000     0.238770000000     0.733060000000    -0.228888   
O101     O      0.194220000000     0.263600000000     0.741810000000    -0.236906   
O102     O      0.185100000000     0.259410000000     0.663610000000    -0.23666    
O103     O      0.238340000000     0.203590000000     0.676120000000    -0.228838   
O104     O      0.189560000000     0.172320000000     0.740410000000    -0.236556   
O105     O      0.282000000000     0.381790000000     0.852140000000    -0.230271   
O106     O      0.340730000000     0.355950000000     0.788820000000    -0.229612   
O107     O      0.269940000000     0.319490000000     0.808170000000    -0.234953   
O108     O      0.330780000000     0.290410000000     0.868770000000    -0.231985   
O109     O      0.364020000000     0.328020000000     0.866460000000    -0.234743   
O110     O      0.311710000000     0.294190000000     0.798600000000    -0.229939   
O111     O      0.281660000000     0.341650000000     0.883710000000    -0.235254   
O112     O      0.344180000000     0.387090000000     0.830670000000    -0.246158   
O113     O      0.479030000000     0.486900000000     0.713850000000    -0.231276   
O114     O      0.400420000000     0.439570000000     0.744150000000    -0.224277   
O115     O      0.467480000000     0.408340000000     0.684140000000    -0.231306   
O116     O      0.416540000000     0.507240000000     0.685140000000    -0.233921   
O117     O      0.390040000000     0.468160000000     0.667260000000    -0.234939   
O118     O      0.458720000000     0.443520000000     0.648360000000    -0.235238   
O119     O      0.455230000000     0.464950000000     0.752560000000    -0.228706   
O120     O      0.406790000000     0.403110000000     0.707130000000    -0.246958   
O121     O      0.031200000000     0.049870000000     0.815320000000    -0.231716   
O122     O      0.117470000000     0.080640000000     0.864020000000    -0.229636   
O123     O      0.024630000000     0.115680000000     0.845720000000    -0.229581   
O124     O      0.074800000000     0.137970000000     0.800950000000    -0.235285   
O125     O      0.116010000000     0.110100000000     0.802310000000    -0.230509   
O126     O      0.057590000000     0.108840000000     0.882710000000    -0.236372   
O127     O      0.066330000000     0.057580000000     0.780650000000    -0.236049   
O128     O      0.091050000000     0.038160000000     0.855850000000    -0.234245   
O129     O      0.471810000000     0.739340000000     0.475700000000    -0.230342   
O130     O      0.482600000000     0.672660000000     0.453800000000    -0.23153    
O131     O      0.417550000000     0.747030000000     0.429600000000    -0.234461   
O132     O      0.386750000000     0.678640000000     0.485920000000    -0.230881   
O133     O      0.428090000000     0.652210000000     0.494240000000    -0.235788   
O134     O      0.390830000000     0.704630000000     0.422530000000    -0.230453   
O135     O      0.435800000000     0.731810000000     0.509510000000    -0.235391   
O136     O      0.451640000000     0.669260000000     0.414570000000    -0.23527    
O137     O      0.096010000000     0.825240000000     0.025360000000    -0.23626    
O138     O      0.095190000000     0.773150000000     0.104010000000    -0.229859   
O139     O      0.059540000000     0.767770000000     0.047730000000    -0.227525   
O140     O      0.036800000000     0.863090000000     0.090980000000    -0.229558   
O141     O      0.036820000000     0.823490000000     0.123270000000    -0.236238   
O142     O      0.021850000000     0.800600000000     0.050370000000    -0.234335   
O143     O      0.095640000000     0.865880000000     0.056140000000    -0.229827   
O144     O      0.114260000000     0.819480000000     0.112630000000    -0.236417   
O145     O      0.217590000000     0.916000000000     0.424890000000    -0.230073   
O146     O      0.216620000000     0.970830000000     0.466610000000    -0.23305    
O147     O      0.151850000000     0.897900000000     0.448530000000    -0.235521   
O148     O      0.121770000000     0.959460000000     0.413180000000    -0.235087   
O149     O      0.157530000000     0.990180000000     0.395960000000    -0.230017   
O150     O      0.145780000000     0.934450000000     0.483530000000    -0.235882   
O151     O      0.195250000000     0.935380000000     0.383960000000    -0.234955   
O152     O      0.177790000000     0.001970000000     0.463140000000    -0.230872   
O153     O      0.361340000000     0.615680000000     0.079930000000    -0.23406    
O154     O      0.365080000000     0.548980000000     0.104110000000    -0.233649   
O155     O      0.313250000000     0.538650000000     0.035410000000    -0.232077   
O156     O      0.285700000000     0.621570000000     0.082990000000    -0.23496    
O157     O      0.297340000000     0.599910000000     0.127430000000    -0.232418   
O158     O      0.272040000000     0.555670000000     0.057330000000    -0.232314   
O159     O      0.347850000000     0.597540000000     0.034510000000    -0.230482   
O160     O      0.321310000000     0.531790000000     0.119590000000    -0.233204   
O161     O      0.225330000000     0.681610000000     0.160750000000    -0.233446   
O162     O      0.150360000000     0.685990000000     0.235820000000    -0.232103   
O163     O      0.176090000000     0.746830000000     0.178910000000    -0.233883   
O164     O      0.238940000000     0.737310000000     0.223260000000    -0.235148   
O165     O      0.203110000000     0.730760000000     0.257360000000    -0.236273   
O166     O      0.158950000000     0.700590000000     0.165920000000    -0.234661   
O167     O      0.238990000000     0.661220000000     0.205190000000    -0.229644   
O168     O      0.185060000000     0.649730000000     0.233480000000    -0.231702   
O169     O      0.277320000000     0.868940000000     0.339560000000    -0.227477   
O170     O      0.362860000000     0.849630000000     0.293680000000    -0.22542    
O171     O      0.277490000000     0.799090000000     0.312480000000    -0.233703   
O172     O      0.338980000000     0.784680000000     0.356440000000    -0.233566   
O173     O      0.366210000000     0.826850000000     0.362870000000    -0.232914   
O174     O      0.313120000000     0.805760000000     0.278220000000    -0.233698   
O175     O      0.299770000000     0.849610000000     0.380510000000    -0.23522    
O176     O      0.331070000000     0.887230000000     0.309450000000    -0.251605   
O177     O      0.488930000000     0.989240000000     0.217800000000    -0.22935    
O178     O      0.403920000000     0.937090000000     0.236010000000    -0.22408    
O179     O      0.492460000000     0.927820000000     0.181700000000    -0.23019    
O180     O      0.435730000000     0.003950000000     0.172550000000    -0.232894   
O181     O      0.397870000000     0.971560000000     0.176760000000    -0.227958   
O182     O      0.452900000000     0.925350000000     0.151590000000    -0.236273   
O183     O      0.456890000000     0.976470000000     0.254140000000    -0.235696   
O184     O      0.439120000000     0.901160000000     0.224630000000    -0.253612   
O185     O      0.015200000000     0.542780000000     0.303890000000    -0.231223   
O186     O      0.093070000000     0.577520000000     0.359760000000    -0.232515   
O187     O      0.006570000000     0.612340000000     0.325710000000    -0.232022   
O188     O      0.065710000000     0.633120000000     0.291420000000    -0.235896   
O189     O      0.101200000000     0.597690000000     0.290040000000    -0.233829   
O190     O      0.035910000000     0.608750000000     0.366260000000    -0.233105   
O191     O      0.046430000000     0.556140000000     0.266900000000    -0.235671   
O192     O      0.075270000000     0.533020000000     0.342550000000    -0.233778   
O193     O      0.473340000000     0.724110000000     0.004960000000    -0.224966   
O194     O      0.490480000000     0.665180000000     0.951300000000    -0.238619   
O195     O      0.427510000000     0.732810000000     0.912860000000    -0.228232   
O196     O      0.423630000000     0.677350000000     0.004750000000    -0.225366   
O197     O      0.410210000000     0.658420000000     0.959600000000    -0.236927   
O198     O      0.403480000000     0.739160000000     0.956740000000    -0.238239   
O199     O      0.485280000000     0.744900000000     0.960180000000    -0.23712    
O200     O      0.463840000000     0.674580000000     0.909610000000    -0.227892   
O201     O      0.084800000000     0.881840000000     0.565880000000    -0.234122   
O202     O      0.109260000000     0.812030000000     0.601130000000    -0.234387   
O203     O      0.040860000000     0.817640000000     0.524250000000    -0.233606   
O204     O      0.023330000000     0.869940000000     0.595110000000    -0.233277   
O205     O      0.048060000000     0.845010000000     0.631350000000    -0.236241   
O206     O      0.016210000000     0.796240000000     0.562670000000    -0.230378   
O207     O      0.094970000000     0.844110000000     0.533070000000    -0.228387   
O208     O      0.074270000000     0.776340000000     0.596930000000    -0.234162   
O209     O      0.218460000000     0.903960000000     0.932820000000    -0.228643   
O210     O      0.209080000000     0.997000000000     0.982400000000    -0.228728   
O211     O      0.160300000000     0.903730000000     0.970220000000    -0.228843   
O212     O      0.146260000000     0.956070000000     0.916330000000    -0.237468   
O213     O      0.171100000000     0.999170000000     0.926240000000    -0.228853   
O214     O      0.156990000000     0.945520000000     0.999420000000    -0.238685   
O215     O      0.224110000000     0.947630000000     0.906830000000    -0.238174   
O216     O      0.235010000000     0.953680000000     0.987170000000    -0.237367   
O217     O      0.307510000000     0.615800000000     0.539110000000    -0.235643   
O218     O      0.341930000000     0.557460000000     0.613780000000    -0.232801   
O219     O      0.299210000000     0.535710000000     0.527480000000    -0.235204   
O220     O      0.256410000000     0.579090000000     0.607680000000    -0.231894   
O221     O      0.288570000000     0.617720000000     0.604500000000    -0.23441    
O222     O      0.256110000000     0.550080000000     0.547540000000    -0.229786   
O223     O      0.349220000000     0.591270000000     0.551020000000    -0.230429   
O224     O      0.313550000000     0.518390000000     0.599150000000    -0.236439   
O225     O      0.209110000000     0.665440000000     0.669220000000    -0.236292   
O226     O      0.148790000000     0.693650000000     0.721870000000    -0.229295   
O227     O      0.152610000000     0.726550000000     0.663510000000    -0.229939   
O228     O      0.239810000000     0.730380000000     0.730940000000    -0.230241   
O229     O      0.199750000000     0.759880000000     0.735040000000    -0.234636   
O230     O      0.189270000000     0.760720000000     0.663620000000    -0.233334   
O231     O      0.241960000000     0.703420000000     0.666210000000    -0.232781   
O232     O      0.190810000000     0.673550000000     0.739290000000    -0.235975   
O233     O      0.292790000000     0.873350000000     0.852440000000    -0.232377   
O234     O      0.338370000000     0.855530000000     0.783630000000    -0.230392   
O235     O      0.277360000000     0.812700000000     0.801370000000    -0.234318   
O236     O      0.344370000000     0.802280000000     0.880010000000    -0.229463   
O237     O      0.371030000000     0.798710000000     0.837490000000    -0.232205   
O238     O      0.313980000000     0.778630000000     0.802810000000    -0.234454   
O239     O      0.286970000000     0.829120000000     0.877490000000    -0.230594   
O240     O      0.357790000000     0.873500000000     0.828310000000    -0.255836   
O241     O      0.470960000000     0.985030000000     0.714320000000    -0.23225    
O242     O      0.405520000000     0.934630000000     0.742310000000    -0.22795    
O243     O      0.462590000000     0.919270000000     0.681900000000    -0.233031   
O244     O      0.415160000000     0.009160000000     0.662200000000    -0.233799   
O245     O      0.375130000000     0.981150000000     0.672040000000    -0.233049   
O246     O      0.444220000000     0.944210000000     0.641860000000    -0.234941   
O247     O      0.429320000000     0.996570000000     0.738870000000    -0.230903   
O248     O      0.385640000000     0.917620000000     0.697510000000    -0.249884   
O249     O      0.018830000000     0.567920000000     0.801320000000    -0.2321     
O250     O      0.103620000000     0.591720000000     0.864720000000    -0.234858   
O251     O      0.045240000000     0.645690000000     0.841790000000    -0.233373   
O252     O      0.069590000000     0.634730000000     0.780340000000    -0.232462   
O253     O      0.111900000000     0.615990000000     0.798540000000    -0.231983   
O254     O      0.023650000000     0.603930000000     0.861010000000    -0.232311   
O255     O      0.061260000000     0.555890000000     0.778620000000    -0.23499    
O256     O      0.086290000000     0.546710000000     0.848600000000    -0.234293   
O257     O      0.980120000000     0.224140000000     0.479830000000    -0.231692   
O258     O      0.984960000000     0.158700000000     0.451940000000    -0.230504   
O259     O      0.924290000000     0.237160000000     0.432570000000    -0.2339     
O260     O      0.891740000000     0.167130000000     0.487950000000    -0.22988    
O261     O      0.933580000000     0.143030000000     0.499590000000    -0.234765   
O262     O      0.892910000000     0.197710000000     0.430220000000    -0.2293     
O263     O      0.940400000000     0.224970000000     0.509740000000    -0.236466   
O264     O      0.952830000000     0.162460000000     0.413780000000    -0.235858   
O265     O      0.564430000000     0.364500000000     0.046470000000    -0.238002   
O266     O      0.611480000000     0.299040000000     0.103250000000    -0.228984   
O267     O      0.556900000000     0.280220000000     0.032180000000    -0.23668    
O268     O      0.518010000000     0.340790000000     0.101900000000    -0.227586   
O269     O      0.560620000000     0.348940000000     0.125940000000    -0.235993   
O270     O      0.516560000000     0.288120000000     0.060150000000    -0.228185   
O271     O      0.605380000000     0.336160000000     0.045480000000    -0.229259   
O272     O      0.573340000000     0.267430000000     0.110160000000    -0.237245   
O273     O      0.719520000000     0.402930000000     0.437320000000    -0.23039    
O274     O      0.722130000000     0.477510000000     0.464480000000    -0.233852   
O275     O      0.664450000000     0.387300000000     0.465030000000    -0.231624   
O276     O      0.634070000000     0.446800000000     0.415090000000    -0.235965   
O277     O      0.655220000000     0.490840000000     0.428980000000    -0.234749   
O278     O      0.642140000000     0.425630000000     0.489710000000    -0.230584   
O279     O      0.704090000000     0.432000000000     0.398590000000    -0.234817   
O280     O      0.690870000000     0.464870000000     0.501530000000    -0.234401   
O281     O      0.806060000000     0.113410000000     0.031870000000    -0.231556   
O282     O      0.834050000000     0.050070000000     0.113550000000    -0.23405    
O283     O      0.765560000000     0.025060000000     0.061480000000    -0.230379   
O284     O      0.757330000000     0.078540000000     0.102420000000    -0.233788   
O285     O      0.792540000000     0.114160000000     0.104410000000    -0.233004   
O286     O      0.775350000000     0.052740000000     0.019940000000    -0.231114   
O287     O      0.848480000000     0.090240000000     0.043570000000    -0.234074   
O288     O      0.837120000000     0.022470000000     0.070890000000    -0.233545   
O289     O      0.713620000000     0.160560000000     0.171660000000    -0.232882   
O290     O      0.656380000000     0.192120000000     0.234520000000    -0.230061   
O291     O      0.655880000000     0.219220000000     0.172800000000    -0.231328   
O292     O      0.746080000000     0.225730000000     0.235480000000    -0.23038    
O293     O      0.704570000000     0.252330000000     0.241990000000    -0.235851   
O294     O      0.693690000000     0.251240000000     0.166260000000    -0.23527    
O295     O      0.748860000000     0.196220000000     0.174320000000    -0.229944   
O296     O      0.694860000000     0.160440000000     0.238490000000    -0.234017   
O297     O      0.783260000000     0.364360000000     0.351090000000    -0.229747   
O298     O      0.849030000000     0.346910000000     0.289670000000    -0.230793   
O299     O      0.778920000000     0.306740000000     0.310670000000    -0.233715   
O300     O      0.841540000000     0.280150000000     0.368370000000    -0.231634   
O301     O      0.873730000000     0.318840000000     0.366370000000    -0.233689   
O302     O      0.821110000000     0.282250000000     0.301010000000    -0.229941   
O303     O      0.797970000000     0.334220000000     0.389250000000    -0.235122   
O304     O      0.848010000000     0.379460000000     0.330530000000    -0.252062   
O305     O      0.970920000000     0.488310000000     0.213030000000    -0.2287     
O306     O      0.891680000000     0.438720000000     0.240390000000    -0.222994   
O307     O      0.969230000000     0.426030000000     0.178070000000    -0.230915   
O308     O      0.913220000000     0.510260000000     0.175760000000    -0.23645    
O309     O      0.877180000000     0.475670000000     0.172250000000    -0.231996   
O310     O      0.934820000000     0.437590000000     0.143580000000    -0.234302   
O311     O      0.940290000000     0.474640000000     0.250380000000    -0.229434   
O312     O      0.908500000000     0.402230000000     0.207150000000    -0.25013    
O313     O      0.526070000000     0.050760000000     0.307350000000    -0.232863   
O314     O      0.604360000000     0.084810000000     0.364020000000    -0.232846   
O315     O      0.518260000000     0.123230000000     0.327050000000    -0.231233   
O316     O      0.576120000000     0.141200000000     0.297360000000    -0.234045   
O317     O      0.612400000000     0.106600000000     0.297000000000    -0.23079    
O318     O      0.540180000000     0.112100000000     0.371120000000    -0.234553   
O319     O      0.559890000000     0.062110000000     0.272270000000    -0.235354   
O320     O      0.580970000000     0.041580000000     0.351210000000    -0.23384    
O321     O      0.970530000000     0.234970000000     0.964650000000    -0.231282   
O322     O      0.941410000000     0.174540000000     0.897940000000    -0.236905   
O323     O      0.913800000000     0.247130000000     0.919960000000    -0.234493   
O324     O      0.883080000000     0.176040000000     0.974850000000    -0.229053   
O325     O      0.925260000000     0.151260000000     0.983500000000    -0.235354   
O326     O      0.881800000000     0.208170000000     0.918440000000    -0.228424   
O327     O      0.932650000000     0.232630000000     0.996900000000    -0.23696    
O328     O      0.974850000000     0.168530000000     0.934600000000    -0.230269   
O329     O      0.573320000000     0.372620000000     0.563830000000    -0.231117   
O330     O      0.596870000000     0.307920000000     0.612320000000    -0.235979   
O331     O      0.535780000000     0.306170000000     0.523450000000    -0.235401   
O332     O      0.520850000000     0.363660000000     0.593350000000    -0.229719   
O333     O      0.529180000000     0.327670000000     0.628470000000    -0.234015   
O334     O      0.509200000000     0.286450000000     0.561350000000    -0.233029   
O335     O      0.593810000000     0.333670000000     0.538370000000    -0.230738   
O336     O      0.575890000000     0.267060000000     0.590760000000    -0.235079   
O337     O      0.724030000000     0.422970000000     0.930500000000    -0.228435   
O338     O      0.719400000000     0.480940000000     0.966020000000    -0.22996    
O339     O      0.674390000000     0.397030000000     0.976360000000    -0.23733    
O340     O      0.628720000000     0.456360000000     0.917560000000    -0.230806   
O341     O      0.660490000000     0.495530000000     0.916900000000    -0.235492   
O342     O      0.634030000000     0.426090000000     0.979330000000    -0.230341   
O343     O      0.687000000000     0.421680000000     0.897090000000    -0.236574   
O344     O      0.678750000000     0.482550000000     0.994520000000    -0.237221   
O345     O      0.812440000000     0.107730000000     0.544210000000    -0.234019   
O346     O      0.849560000000     0.056350000000     0.620280000000    -0.230892   
O347     O      0.802130000000     0.024340000000     0.542810000000    -0.234887   
O348     O      0.766490000000     0.074020000000     0.624420000000    -0.233775   
O349     O      0.788380000000     0.116340000000     0.607020000000    -0.233247   
O350     O      0.760070000000     0.046990000000     0.556470000000    -0.232932   
O351     O      0.854160000000     0.085580000000     0.559950000000    -0.229279   
O352     O      0.818540000000     0.017170000000     0.613510000000    -0.232909   
O353     O      0.714320000000     0.160710000000     0.680810000000    -0.234475   
O354     O      0.645060000000     0.188480000000     0.719000000000    -0.231899   
O355     O      0.655110000000     0.221630000000     0.660410000000    -0.232585   
O356     O      0.739750000000     0.238820000000     0.721750000000    -0.231435   
O357     O      0.699840000000     0.240820000000     0.751350000000    -0.234792   
O358     O      0.674680000000     0.262900000000     0.682600000000    -0.236564   
O359     O      0.733920000000     0.203210000000     0.661120000000    -0.233845   
O360     O      0.685400000000     0.170090000000     0.741840000000    -0.231676   
O361     O      0.770170000000     0.365510000000     0.842650000000    -0.227809   
O362     O      0.861420000000     0.361950000000     0.795930000000    -0.225198   
O363     O      0.774930000000     0.305930000000     0.808390000000    -0.230213   
O364     O      0.832170000000     0.291590000000     0.855070000000    -0.235474   
O365     O      0.864790000000     0.330010000000     0.855580000000    -0.227062   
O366     O      0.814260000000     0.306020000000     0.777900000000    -0.235382   
O367     O      0.807450000000     0.367110000000     0.875720000000    -0.236224   
O368     O      0.818390000000     0.389320000000     0.794400000000    -0.254322   
O369     O      0.984300000000     0.494650000000     0.719010000000    -0.227589   
O370     O      0.894100000000     0.446460000000     0.729090000000    -0.224118   
O371     O      0.983320000000     0.440780000000     0.675760000000    -0.226799   
O372     O      0.930780000000     0.511520000000     0.661430000000    -0.23687    
O373     O      0.890450000000     0.485040000000     0.673980000000    -0.225597   
O374     O      0.939950000000     0.429400000000     0.654610000000    -0.236673   
O375     O      0.942270000000     0.504910000000     0.743320000000    -0.236259   
O376     O      0.937810000000     0.420630000000     0.733960000000    -0.257836   
O377     O      0.507000000000     0.060020000000     0.794120000000    -0.234901   
O378     O      0.592460000000     0.086100000000     0.852010000000    -0.230251   
O379     O      0.517800000000     0.135140000000     0.821090000000    -0.231988   
O380     O      0.561040000000     0.129670000000     0.769520000000    -0.231712   
O381     O      0.601370000000     0.111770000000     0.792440000000    -0.232192   
O382     O      0.525950000000     0.104180000000     0.860580000000    -0.235211   
O383     O      0.548520000000     0.049960000000     0.768850000000    -0.235182   
O384     O      0.572450000000     0.041590000000     0.837300000000    -0.232442   
O385     O      0.971620000000     0.743830000000     0.471460000000    -0.230981   
O386     O      0.984120000000     0.673030000000     0.446980000000    -0.233195   
O387     O      0.920000000000     0.749120000000     0.425540000000    -0.233712   
O388     O      0.890330000000     0.683750000000     0.484990000000    -0.229961   
O389     O      0.926990000000     0.649690000000     0.481350000000    -0.235104   
O390     O      0.890370000000     0.708350000000     0.422230000000    -0.232231   
O391     O      0.942930000000     0.725650000000     0.508530000000    -0.235792   
O392     O      0.953280000000     0.674510000000     0.407510000000    -0.235739   
O393     O      0.609910000000     0.831550000000     0.034800000000    -0.232018   
O394     O      0.592650000000     0.784390000000     0.112800000000    -0.23151    
O395     O      0.537140000000     0.785020000000     0.080260000000    -0.229368   
O396     O      0.529950000000     0.860730000000     0.096300000000    -0.234975   
O397     O      0.569960000000     0.865350000000     0.125350000000    -0.236596   
O398     O      0.547980000000     0.805120000000     0.034930000000    -0.23403    
O399     O      0.587950000000     0.875640000000     0.047600000000    -0.234582   
O400     O      0.625640000000     0.821390000000     0.104370000000    -0.232403   
O401     O      0.715500000000     0.913600000000     0.434850000000    -0.229076   
O402     O      0.723980000000     0.971340000000     0.477400000000    -0.235108   
O403     O      0.654610000000     0.900670000000     0.460590000000    -0.23204    
O404     O      0.631520000000     0.959710000000     0.416070000000    -0.235402   
O405     O      0.657890000000     0.002140000000     0.424310000000    -0.228368   
O406     O      0.646640000000     0.936290000000     0.496050000000    -0.234677   
O407     O      0.706060000000     0.949850000000     0.400260000000    -0.235971   
O408     O      0.682490000000     0.995760000000     0.489910000000    -0.231544   
O409     O      0.802610000000     0.627260000000     0.043060000000    -0.236286   
O410     O      0.837390000000     0.563060000000     0.109110000000    -0.228769   
O411     O      0.792620000000     0.546880000000     0.026070000000    -0.235333   
O412     O      0.747960000000     0.609700000000     0.086240000000    -0.230484   
O413     O      0.781730000000     0.608800000000     0.123130000000    -0.237382   
O414     O      0.751340000000     0.548530000000     0.053640000000    -0.229175   
O415     O      0.842880000000     0.599620000000     0.053000000000    -0.228607   
O416     O      0.799750000000     0.530140000000     0.107120000000    -0.235483   
O417     O      0.703590000000     0.677060000000     0.168990000000    -0.236244   
O418     O      0.645250000000     0.688310000000     0.247420000000    -0.229923   
O419     O      0.676850000000     0.748870000000     0.179370000000    -0.233952   
O420     O      0.734480000000     0.737380000000     0.234080000000    -0.231967   
O421     O      0.692650000000     0.747830000000     0.258560000000    -0.236194   
O422     O      0.643760000000     0.711340000000     0.185330000000    -0.231208   
O423     O      0.736110000000     0.674220000000     0.207000000000    -0.228448   
O424     O      0.684770000000     0.658020000000     0.250270000000    -0.236189   
O425     O      0.781050000000     0.879710000000     0.347750000000    -0.230328   
O426     O      0.840830000000     0.856060000000     0.282780000000    -0.228074   
O427     O      0.770330000000     0.814690000000     0.311750000000    -0.233763   
O428     O      0.836850000000     0.789710000000     0.360250000000    -0.233263   
O429     O      0.866920000000     0.830150000000     0.361550000000    -0.234559   
O430     O      0.812260000000     0.799000000000     0.290220000000    -0.2276     
O431     O      0.790870000000     0.844400000000     0.383190000000    -0.235813   
O432     O      0.845940000000     0.888030000000     0.323760000000    -0.247882   
O433     O      0.966900000000     0.993840000000     0.205930000000    -0.231917   
O434     O      0.907470000000     0.932940000000     0.237340000000    -0.228274   
O435     O      0.967090000000     0.900760000000     0.173100000000    -0.230564   
O436     O      0.903620000000     0.994840000000     0.186580000000    -0.232031   
O437     O      0.905170000000     0.966020000000     0.144650000000    -0.229934   
O438     O      0.968770000000     0.941260000000     0.142080000000    -0.233415   
O439     O      0.972980000000     0.951450000000     0.233770000000    -0.231604   
O440     O      0.900500000000     0.902670000000     0.195420000000    -0.25003    
O441     O      0.517710000000     0.541230000000     0.313020000000    -0.230109   
O442     O      0.596110000000     0.572530000000     0.373210000000    -0.231848   
O443     O      0.507860000000     0.603830000000     0.337650000000    -0.230527   
O444     O      0.565490000000     0.628550000000     0.302970000000    -0.237504   
O445     O      0.604760000000     0.597900000000     0.305640000000    -0.232811   
O446     O      0.537990000000     0.605900000000     0.377710000000    -0.233513   
O447     O      0.555890000000     0.546910000000     0.281440000000    -0.234344   
O448     O      0.575880000000     0.528660000000     0.357390000000    -0.234869   
O449     O      0.978950000000     0.715930000000     0.985140000000    -0.232843   
O450     O      0.948150000000     0.647570000000     0.935460000000    -0.233343   
O451     O      0.914410000000     0.746400000000     0.929390000000    -0.231303   
O452     O      0.884170000000     0.682130000000     0.984920000000    -0.234906   
O453     O      0.925160000000     0.658090000000     0.999700000000    -0.236315   
O454     O      0.889950000000     0.703150000000     0.919260000000    -0.233224   
O455     O      0.939170000000     0.744770000000     0.993610000000    -0.233901   
O456     O      0.971120000000     0.689130000000     0.917630000000    -0.233954   
O457     O      0.581740000000     0.881350000000     0.573930000000    -0.233721   
O458     O      0.603690000000     0.812800000000     0.610800000000    -0.235428   
O459     O      0.544120000000     0.809390000000     0.529220000000    -0.231411   
O460     O      0.517280000000     0.869180000000     0.594380000000    -0.23294    
O461     O      0.536490000000     0.844580000000     0.634260000000    -0.235253   
O462     O      0.510790000000     0.799210000000     0.565110000000    -0.231058   
O463     O      0.591340000000     0.845340000000     0.539180000000    -0.227533   
O464     O      0.569670000000     0.776460000000     0.604690000000    -0.235579   
O465     O      0.714040000000     0.918240000000     0.924980000000    -0.234415   
O466     O      0.700230000000     0.976300000000     0.981420000000    -0.235399   
O467     O      0.654420000000     0.909550000000     0.961590000000    -0.233031   
O468     O      0.629320000000     0.961450000000     0.898280000000    -0.232186   
O469     O      0.650210000000     0.005910000000     0.911730000000    -0.22717    
O470     O      0.633270000000     0.953780000000     0.975120000000    -0.236628   
O471     O      0.690810000000     0.935390000000     0.883670000000    -0.23536    
O472     O      0.710410000000     0.001800000000     0.938690000000    -0.229046   
O473     O      0.810460000000     0.626740000000     0.543200000000    -0.236524   
O474     O      0.849170000000     0.560620000000     0.597740000000    -0.230928   
O475     O      0.795770000000     0.548200000000     0.518550000000    -0.236572   
O476     O      0.753430000000     0.604090000000     0.579180000000    -0.2317     
O477     O      0.788540000000     0.610960000000     0.614140000000    -0.235692   
O478     O      0.762310000000     0.537210000000     0.554020000000    -0.230775   
O479     O      0.847300000000     0.592750000000     0.540520000000    -0.227194   
O480     O      0.809150000000     0.533620000000     0.609930000000    -0.234902   
O481     O      0.706480000000     0.677210000000     0.656050000000    -0.234696   
O482     O      0.648320000000     0.692460000000     0.733520000000    -0.229122   
O483     O      0.648740000000     0.724450000000     0.669210000000    -0.232279   
O484     O      0.735450000000     0.742780000000     0.721550000000    -0.227716   
O485     O      0.699200000000     0.734650000000     0.754940000000    -0.234946   
O486     O      0.684110000000     0.759730000000     0.672860000000    -0.237123   
O487     O      0.741970000000     0.683990000000     0.690590000000    -0.231178   
O488     O      0.683100000000     0.657120000000     0.725400000000    -0.237308   
O489     O      0.772380000000     0.867860000000     0.840990000000    -0.228125   
O490     O      0.858260000000     0.851390000000     0.795480000000    -0.225797   
O491     O      0.774190000000     0.799470000000     0.813690000000    -0.23388    
O492     O      0.836120000000     0.784580000000     0.856450000000    -0.233992   
O493     O      0.861360000000     0.827460000000     0.866150000000    -0.233649   
O494     O      0.809860000000     0.807430000000     0.779710000000    -0.233086   
O495     O      0.794210000000     0.848360000000     0.882260000000    -0.234866   
O496     O      0.827830000000     0.888720000000     0.814370000000    -0.250515   
O497     O      0.990970000000     0.989410000000     0.726170000000    -0.232768   
O498     O      0.902250000000     0.941150000000     0.743700000000    -0.225808   
O499     O      0.983750000000     0.919800000000     0.690980000000    -0.226807   
O500     O      0.929860000000     0.010530000000     0.688200000000    -0.23354    
O501     O      0.898430000000     0.971790000000     0.680740000000    -0.232498   
O502     O      0.959090000000     0.945180000000     0.654970000000    -0.236089   
O503     O      0.957400000000     0.980410000000     0.762090000000    -0.235917   
O504     O      0.934930000000     0.904110000000     0.728560000000    -0.251291   
O505     O      0.525540000000     0.539230000000     0.803810000000    -0.231298   
O506     O      0.608760000000     0.575210000000     0.850160000000    -0.233099   
O507     O      0.514230000000     0.611320000000     0.827210000000    -0.23213    
O508     O      0.570730000000     0.634630000000     0.795220000000    -0.234025   
O509     O      0.605640000000     0.599520000000     0.786490000000    -0.229195   
O510     O      0.543450000000     0.605740000000     0.867660000000    -0.236251   
O511     O      0.553600000000     0.556920000000     0.766050000000    -0.235745   
O512     O      0.578280000000     0.535020000000     0.849460000000    -0.234272   


