data_structure

_audit_creation_method RASPA-1.0
_audit_creation_date 2023-5-22
_audit_author_name 'Poobodin Mano'

_cell_length_a    28.578
_cell_length_b    40.7789
_cell_length_c    29.5056
_cell_angle_alpha 90
_cell_angle_beta  90
_cell_angle_gamma 90
_cell_volume      34385.2

_symmetry_cell_setting          triclinic
_symmetry_space_group_name_Hall 'P 1'
_symmetry_space_group_name_H-M  'P 1'
_symmetry_Int_Tables_number     1

_symmetry_equiv_pos_as_xyz 'x,y,z'

loop_
_atom_site_label
_atom_site_type_symbol
_atom_site_fract_x
_atom_site_fract_y
_atom_site_fract_z
_atom_site_charge
C1       C      0.746770000000     0.312450000000     0.836360000000     0.366515   
C2       C      0.872010000000     0.256270000000     0.771000000000     0.363232   
C3       C      0.755520000000     0.304050000000     0.678330000000     0.367974   
C4       C      0.861630000000     0.372340000000     0.756530000000     0.365898   
C5       C      0.445410000000     0.444950000000     0.329070000000     0.364501   
C6       C      0.560200000000     0.381430000000     0.387450000000     0.363462   
C7       C      0.557020000000     0.496810000000     0.422350000000     0.367834   
C8       C      0.455370000000     0.422830000000     0.491760000000     0.361066   
C9       C      0.616640000000     0.486200000000     0.784170000000     0.371007   
C10      C      0.485720000000     0.523440000000     0.706360000000     0.364921   
C11      C      0.539640000000     0.561500000000     0.857320000000     0.369836   
C12      C      0.601940000000     0.601030000000     0.726890000000     0.36296    
C13      C      0.740500000000     0.240100000000     0.397490000000     0.373929   
C14      C      0.645320000000     0.152190000000     0.429450000000     0.35589    
C15      C      0.667580000000     0.179320000000     0.273090000000     0.364405   
C16      C      0.781570000000     0.129280000000     0.359430000000     0.352185   
C17      C      0.397860000000     0.221830000000     0.434540000000     0.365354   
C18      C      0.509360000000     0.301850000000     0.384340000000     0.36637    
C19      C      0.454260000000     0.301470000000     0.536630000000     0.363833   
C20      C      0.545800000000     0.212920000000     0.475880000000     0.368622   
C21      C      0.683660000000     0.365380000000     0.621710000000     0.367382   
C22      C      0.581560000000     0.448710000000     0.604340000000     0.363474   
C23      C      0.508520000000     0.355180000000     0.650300000000     0.359095   
C24      C      0.620750000000     0.397000000000     0.750300000000     0.361967   
C25      C      0.740760000000     0.529740000000     0.599860000000     0.370757   
C26      C      0.652990000000     0.473640000000     0.508460000000     0.36655    
C27      C      0.769810000000     0.541490000000     0.433530000000     0.366521   
C28      C      0.818570000000     0.452600000000     0.518340000000     0.360006   
C29      C      0.368170000000     0.146700000000     0.517860000000     0.365873   
C30      C      0.398520000000     0.176000000000     0.677650000000     0.363477   
C31      C      0.275200000000     0.108890000000     0.621730000000     0.365518   
C32      C      0.436670000000     0.073230000000     0.613160000000     0.363429   
C33      C      0.713170000000     0.572820000000     0.652940000000     0.0795341  
C34      C      0.569600000000     0.476240000000     0.530690000000     0.0834265  
C35      C      0.336780000000     0.182650000000     0.457390000000     0.0758511  
C36      C      0.459440000000     0.310290000000     0.619430000000     0.074075   
C37      C      0.820960000000     0.082450000000     0.395950000000     0.075254   
C38      C      0.571430000000     0.155090000000     0.472220000000     0.0757913  
C39      C      0.455050000000     0.014990000000     0.628930000000     0.079023   
C40      C      0.624920000000     0.431150000000     0.819300000000     0.075689   
C41      C      0.607320000000     0.161560000000     0.718220000000     0.0749404  
C42      C      0.895400000000     0.435980000000     0.549070000000     0.0764644  
C43      C      0.561090000000     0.556530000000     0.938290000000     0.0818425  
C44      C      0.573030000000     0.330490000000     0.343510000000     0.0780942  
C45      C      0.393250000000     0.198540000000     0.755160000000     0.0744013  
C46      C      0.728400000000     0.298710000000     0.416740000000     0.0796456  
C47      C      0.735700000000     0.319430000000     0.599190000000     0.0818145  
C48      C      0.876210000000     0.429120000000     0.283150000000     0.0748247  
C49      C      0.746770000000     0.312450000000     0.336360000000     0.366389   
C50      C      0.872010000000     0.256270000000     0.271000000000     0.363194   
C51      C      0.755520000000     0.304050000000     0.178330000000     0.367966   
C52      C      0.861630000000     0.372340000000     0.256530000000     0.365897   
C53      C      0.445410000000     0.444950000000     0.829070000000     0.364603   
C54      C      0.560200000000     0.381430000000     0.887450000000     0.363463   
C55      C      0.557020000000     0.496810000000     0.922350000000     0.367844   
C56      C      0.455370000000     0.422830000000     0.991760000000     0.361237   
C57      C      0.616640000000     0.486200000000     0.284170000000     0.371006   
C58      C      0.485720000000     0.523440000000     0.206360000000     0.364923   
C59      C      0.539640000000     0.561500000000     0.357320000000     0.369839   
C60      C      0.601940000000     0.601030000000     0.226890000000     0.362959   
C61      C      0.740500000000     0.240100000000     0.897490000000     0.37396    
C62      C      0.645320000000     0.152190000000     0.929450000000     0.355814   
C63      C      0.667580000000     0.179320000000     0.773090000000     0.364405   
C64      C      0.781570000000     0.129280000000     0.859430000000     0.352289   
C65      C      0.397860000000     0.221830000000     0.934540000000     0.365483   
C66      C      0.509360000000     0.301850000000     0.884340000000     0.366361   
C67      C      0.454260000000     0.301470000000     0.036630000000     0.363621   
C68      C      0.545800000000     0.212920000000     0.975880000000     0.368629   
C69      C      0.683660000000     0.365380000000     0.121710000000     0.367352   
C70      C      0.581560000000     0.448710000000     0.104340000000     0.363415   
C71      C      0.508520000000     0.355180000000     0.150300000000     0.359096   
C72      C      0.620750000000     0.397000000000     0.250300000000     0.361906   
C73      C      0.740760000000     0.529740000000     0.099860000000     0.370763   
C74      C      0.652990000000     0.473640000000     0.008460000000     0.366335   
C75      C      0.769810000000     0.541490000000     0.933530000000     0.366508   
C76      C      0.818570000000     0.452600000000     0.018340000000     0.35979    
C77      C      0.368170000000     0.146700000000     0.017860000000     0.365801   
C78      C      0.398520000000     0.176000000000     0.177650000000     0.363485   
C79      C      0.275200000000     0.108890000000     0.121730000000     0.365514   
C80      C      0.436670000000     0.073230000000     0.113160000000     0.363423   
C81      C      0.713170000000     0.572820000000     0.152940000000     0.0795328  
C82      C      0.569600000000     0.476240000000     0.030680000000     0.0834447  
C83      C      0.336780000000     0.182650000000     0.957390000000     0.075858   
C84      C      0.459440000000     0.310290000000     0.119430000000     0.0740656  
C85      C      0.820960000000     0.082450000000     0.895950000000     0.0752528  
C86      C      0.571430000000     0.155090000000     0.972220000000     0.0760051  
C87      C      0.455050000000     0.014990000000     0.128930000000     0.0790225  
C88      C      0.624920000000     0.431150000000     0.319300000000     0.0756916  
C89      C      0.607320000000     0.161560000000     0.218220000000     0.0749407  
C90      C      0.895400000000     0.435980000000     0.049070000000     0.0764207  
C91      C      0.561080000000     0.556530000000     0.438290000000     0.0818466  
C92      C      0.573030000000     0.330490000000     0.843510000000     0.0780842  
C93      C      0.393250000000     0.198540000000     0.255170000000     0.0743955  
C94      C      0.728400000000     0.298710000000     0.916740000000     0.0796442  
C95      C      0.735700000000     0.319430000000     0.099190000000     0.0818582  
C96      C      0.876210000000     0.429120000000     0.783150000000     0.0748305  
C97      C      0.746770000000     0.812450000000     0.836360000000     0.366515   
C98      C      0.872010000000     0.756270000000     0.771000000000     0.363222   
C99      C      0.755520000000     0.804050000000     0.678330000000     0.36797    
C100     C      0.861630000000     0.872340000000     0.756530000000     0.36589    
C101     C      0.445410000000     0.944940000000     0.329070000000     0.364513   
C102     C      0.560200000000     0.881430000000     0.387450000000     0.363463   
C103     C      0.557010000000     0.996810000000     0.422350000000     0.367861   
C104     C      0.455370000000     0.922830000000     0.491760000000     0.360902   
C105     C      0.616640000000     0.986200000000     0.784170000000     0.370975   
C106     C      0.485720000000     0.023450000000     0.706360000000     0.364954   
C107     C      0.539640000000     0.061500000000     0.857320000000     0.369841   
C108     C      0.601940000000     0.101030000000     0.726890000000     0.362963   
C109     C      0.740500000000     0.740100000000     0.397490000000     0.373952   
C110     C      0.645320000000     0.652190000000     0.429450000000     0.355852   
C111     C      0.667580000000     0.679320000000     0.273090000000     0.364406   
C112     C      0.781570000000     0.629280000000     0.359430000000     0.352183   
C113     C      0.397860000000     0.721830000000     0.434540000000     0.365353   
C114     C      0.509350000000     0.801850000000     0.384340000000     0.366388   
C115     C      0.454260000000     0.801470000000     0.536630000000     0.363834   
C116     C      0.545800000000     0.712920000000     0.475880000000     0.368621   
C117     C      0.683660000000     0.865380000000     0.621710000000     0.367196   
C118     C      0.581560000000     0.948710000000     0.604340000000     0.363494   
C119     C      0.508520000000     0.855180000000     0.650300000000     0.359096   
C120     C      0.620750000000     0.897000000000     0.750300000000     0.362034   
C121     C      0.740760000000     0.029750000000     0.599860000000     0.37073    
C122     C      0.652990000000     0.973640000000     0.508460000000     0.366513   
C123     C      0.769810000000     0.041490000000     0.433530000000     0.36652    
C124     C      0.818560000000     0.952600000000     0.518340000000     0.360108   
C125     C      0.368170000000     0.646700000000     0.517860000000     0.366035   
C126     C      0.398520000000     0.676000000000     0.677650000000     0.363483   
C127     C      0.275200000000     0.608890000000     0.621730000000     0.36552    
C128     C      0.436670000000     0.573230000000     0.613160000000     0.363418   
C129     C      0.713170000000     0.072820000000     0.652940000000     0.0795314  
C130     C      0.569590000000     0.976240000000     0.530690000000     0.0833306  
C131     C      0.336780000000     0.682650000000     0.457390000000     0.0758585  
C132     C      0.459440000000     0.810290000000     0.619430000000     0.0740753  
C133     C      0.820960000000     0.582450000000     0.395950000000     0.0753057  
C134     C      0.571430000000     0.655090000000     0.472220000000     0.0757911  
C135     C      0.455050000000     0.514990000000     0.628930000000     0.0789869  
C136     C      0.624920000000     0.931150000000     0.819300000000     0.0756893  
C137     C      0.607320000000     0.661570000000     0.718220000000     0.0748997  
C138     C      0.895400000000     0.935980000000     0.549070000000     0.0764676  
C139     C      0.561080000000     0.056530000000     0.938290000000     0.0818574  
C140     C      0.573030000000     0.830490000000     0.343510000000     0.0780959  
C141     C      0.393250000000     0.698540000000     0.755170000000     0.0743736  
C142     C      0.728400000000     0.798710000000     0.416740000000     0.0796418  
C143     C      0.735700000000     0.819430000000     0.599190000000     0.0818428  
C144     C      0.876210000000     0.929120000000     0.283150000000     0.0748379  
C145     C      0.746770000000     0.812450000000     0.336360000000     0.366389   
C146     C      0.872010000000     0.756270000000     0.271000000000     0.363236   
C147     C      0.755520000000     0.804050000000     0.178330000000     0.367967   
C148     C      0.861630000000     0.872340000000     0.256530000000     0.365892   
C149     C      0.445410000000     0.944950000000     0.829070000000     0.364666   
C150     C      0.560200000000     0.881430000000     0.887450000000     0.363464   
C151     C      0.557020000000     0.996810000000     0.922350000000     0.367818   
C152     C      0.455370000000     0.922830000000     0.991760000000     0.36109    
C153     C      0.616640000000     0.986200000000     0.284170000000     0.370977   
C154     C      0.485720000000     0.023450000000     0.206360000000     0.364954   
C155     C      0.539640000000     0.061500000000     0.357320000000     0.369965   
C156     C      0.601940000000     0.101030000000     0.226890000000     0.362962   
C157     C      0.740500000000     0.740100000000     0.897490000000     0.37396    
C158     C      0.645320000000     0.652190000000     0.929450000000     0.355871   
C159     C      0.667580000000     0.679320000000     0.773090000000     0.364406   
C160     C      0.781570000000     0.629280000000     0.859430000000     0.35227    
C161     C      0.397860000000     0.721830000000     0.934540000000     0.365481   
C162     C      0.509350000000     0.801850000000     0.884340000000     0.366444   
C163     C      0.454260000000     0.801470000000     0.036630000000     0.363622   
C164     C      0.545800000000     0.712920000000     0.975880000000     0.368628   
C165     C      0.683660000000     0.865380000000     0.121710000000     0.367186   
C166     C      0.581560000000     0.948710000000     0.104340000000     0.363439   
C167     C      0.508520000000     0.855180000000     0.150300000000     0.359095   
C168     C      0.620750000000     0.897010000000     0.250300000000     0.362032   
C169     C      0.740760000000     0.029750000000     0.099860000000     0.370737   
C170     C      0.652990000000     0.973640000000     0.008460000000     0.366296   
C171     C      0.769810000000     0.041490000000     0.933530000000     0.366508   
C172     C      0.818560000000     0.952600000000     0.018340000000     0.359986   
C173     C      0.368170000000     0.646700000000     0.017860000000     0.366041   
C174     C      0.398520000000     0.676000000000     0.177650000000     0.363619   
C175     C      0.275200000000     0.608890000000     0.121730000000     0.36561    
C176     C      0.436670000000     0.573230000000     0.113160000000     0.363414   
C177     C      0.713170000000     0.072820000000     0.152940000000     0.0795299  
C178     C      0.569590000000     0.976240000000     0.030690000000     0.0833842  
C179     C      0.336780000000     0.682650000000     0.957390000000     0.0758535  
C180     C      0.459440000000     0.810290000000     0.119430000000     0.0740658  
C181     C      0.820960000000     0.582450000000     0.895950000000     0.0752583  
C182     C      0.571430000000     0.655090000000     0.972220000000     0.0759971  
C183     C      0.455050000000     0.514990000000     0.128930000000     0.0790007  
C184     C      0.624920000000     0.931150000000     0.319300000000     0.0756914  
C185     C      0.607320000000     0.661570000000     0.218220000000     0.0749     
C186     C      0.895400000000     0.935980000000     0.049080000000     0.0763432  
C187     C      0.561080000000     0.056530000000     0.438290000000     0.0818751  
C188     C      0.573030000000     0.830490000000     0.843510000000     0.0780963  
C189     C      0.393250000000     0.698540000000     0.255170000000     0.0744019  
C190     C      0.728400000000     0.798710000000     0.916740000000     0.0796437  
C191     C      0.735700000000     0.819430000000     0.099190000000     0.0818445  
C192     C      0.876210000000     0.929120000000     0.783150000000     0.0748292  
C193     C      0.246770000000     0.312450000000     0.836360000000     0.366516   
C194     C      0.372010000000     0.256270000000     0.771000000000     0.363084   
C195     C      0.255520000000     0.304050000000     0.678330000000     0.367969   
C196     C      0.361630000000     0.372340000000     0.756530000000     0.365898   
C197     C      0.945410000000     0.444950000000     0.329070000000     0.3645     
C198     C      0.060200000000     0.381430000000     0.387450000000     0.363462   
C199     C      0.057020000000     0.496810000000     0.422350000000     0.367835   
C200     C      0.955370000000     0.422830000000     0.491760000000     0.361066   
C201     C      0.116630000000     0.486200000000     0.784170000000     0.371039   
C202     C      0.985720000000     0.523440000000     0.706360000000     0.364802   
C203     C      0.039640000000     0.561500000000     0.857320000000     0.369838   
C204     C      0.101940000000     0.601030000000     0.726890000000     0.36296    
C205     C      0.240500000000     0.240100000000     0.397490000000     0.373952   
C206     C      0.145320000000     0.152190000000     0.429450000000     0.355891   
C207     C      0.167590000000     0.179320000000     0.273090000000     0.364479   
C208     C      0.281570000000     0.129280000000     0.359430000000     0.352257   
C209     C      0.897860000000     0.221830000000     0.434540000000     0.365354   
C210     C      0.009360000000     0.301850000000     0.384340000000     0.366367   
C211     C      0.954260000000     0.301470000000     0.536630000000     0.363833   
C212     C      0.045800000000     0.212920000000     0.475880000000     0.368622   
C213     C      0.183660000000     0.365380000000     0.621710000000     0.367385   
C214     C      0.081560000000     0.448710000000     0.604340000000     0.363471   
C215     C      0.008520000000     0.355180000000     0.650300000000     0.359093   
C216     C      0.120750000000     0.397000000000     0.750300000000     0.361966   
C217     C      0.240750000000     0.529740000000     0.599860000000     0.370749   
C218     C      0.152990000000     0.473640000000     0.508460000000     0.366547   
C219     C      0.269810000000     0.541490000000     0.433530000000     0.366526   
C220     C      0.318570000000     0.452600000000     0.518340000000     0.360005   
C221     C      0.868180000000     0.146700000000     0.517860000000     0.365876   
C222     C      0.898520000000     0.176000000000     0.677650000000     0.363488   
C223     C      0.775200000000     0.108890000000     0.621730000000     0.36561    
C224     C      0.936670000000     0.073230000000     0.613160000000     0.363557   
C225     C      0.213170000000     0.572820000000     0.652940000000     0.0795236  
C226     C      0.069590000000     0.476240000000     0.530690000000     0.0833638  
C227     C      0.836780000000     0.182650000000     0.457390000000     0.0758547  
C228     C      0.959440000000     0.310290000000     0.619430000000     0.074075   
C229     C      0.320970000000     0.082450000000     0.395950000000     0.0752008  
C230     C      0.071430000000     0.155090000000     0.472220000000     0.0757914  
C231     C      0.955050000000     0.014990000000     0.628930000000     0.079032   
C232     C      0.124920000000     0.431150000000     0.819300000000     0.0756798  
C233     C      0.107320000000     0.161560000000     0.718220000000     0.0749429  
C234     C      0.395400000000     0.435980000000     0.549070000000     0.0764643  
C235     C      0.061080000000     0.556530000000     0.938290000000     0.0818473  
C236     C      0.073030000000     0.330490000000     0.343510000000     0.0780942  
C237     C      0.893250000000     0.198540000000     0.755160000000     0.0744238  
C238     C      0.228400000000     0.298710000000     0.416740000000     0.0796424  
C239     C      0.235700000000     0.319430000000     0.599190000000     0.0818498  
C240     C      0.376210000000     0.429120000000     0.283150000000     0.0748243  
C241     C      0.246770000000     0.312450000000     0.336360000000     0.366389   
C242     C      0.372010000000     0.256270000000     0.271000000000     0.363086   
C243     C      0.255520000000     0.304050000000     0.178330000000     0.367969   
C244     C      0.361630000000     0.372340000000     0.256530000000     0.365897   
C245     C      0.945410000000     0.444950000000     0.829070000000     0.364603   
C246     C      0.060200000000     0.381430000000     0.887450000000     0.363463   
C247     C      0.057010000000     0.496810000000     0.922350000000     0.367873   
C248     C      0.955370000000     0.422830000000     0.991760000000     0.361236   
C249     C      0.116630000000     0.486200000000     0.284170000000     0.371038   
C250     C      0.985720000000     0.523440000000     0.206360000000     0.364803   
C251     C      0.039640000000     0.561500000000     0.357320000000     0.36984    
C252     C      0.101940000000     0.601030000000     0.226890000000     0.362959   
C253     C      0.240500000000     0.240100000000     0.897490000000     0.373959   
C254     C      0.145320000000     0.152190000000     0.929450000000     0.355911   
C255     C      0.167590000000     0.179320000000     0.773090000000     0.364479   
C256     C      0.281570000000     0.129280000000     0.859430000000     0.35236    
C257     C      0.897860000000     0.221830000000     0.934540000000     0.365483   
C258     C      0.009360000000     0.301850000000     0.884340000000     0.366358   
C259     C      0.954260000000     0.301470000000     0.036630000000     0.363621   
C260     C      0.045800000000     0.212920000000     0.975880000000     0.368629   
C261     C      0.183660000000     0.365380000000     0.121710000000     0.367349   
C262     C      0.081560000000     0.448710000000     0.104340000000     0.363412   
C263     C      0.008520000000     0.355180000000     0.150300000000     0.359094   
C264     C      0.120750000000     0.397000000000     0.250300000000     0.361906   
C265     C      0.240750000000     0.529740000000     0.099860000000     0.370757   
C266     C      0.152990000000     0.473640000000     0.008460000000     0.366333   
C267     C      0.269810000000     0.541490000000     0.933530000000     0.366515   
C268     C      0.318570000000     0.452600000000     0.018340000000     0.359904   
C269     C      0.868180000000     0.146700000000     0.017860000000     0.365804   
C270     C      0.898520000000     0.176000000000     0.177650000000     0.363486   
C271     C      0.775200000000     0.108890000000     0.121730000000     0.365606   
C272     C      0.936670000000     0.073230000000     0.113160000000     0.363551   
C273     C      0.213170000000     0.572820000000     0.152940000000     0.0795302  
C274     C      0.069590000000     0.476240000000     0.030680000000     0.083382   
C275     C      0.836780000000     0.182650000000     0.957390000000     0.075862   
C276     C      0.959440000000     0.310290000000     0.119430000000     0.0740655  
C277     C      0.320970000000     0.082450000000     0.895950000000     0.0751995  
C278     C      0.071430000000     0.155090000000     0.972220000000     0.0759973  
C279     C      0.955050000000     0.014990000000     0.128930000000     0.0790313  
C280     C      0.124920000000     0.431150000000     0.319300000000     0.0756822  
C281     C      0.107320000000     0.161560000000     0.218220000000     0.0749432  
C282     C      0.395400000000     0.435980000000     0.049070000000     0.076425   
C283     C      0.061080000000     0.556530000000     0.438290000000     0.081847   
C284     C      0.073030000000     0.330490000000     0.843510000000     0.0780842  
C285     C      0.893250000000     0.198540000000     0.255170000000     0.0743951  
C286     C      0.228400000000     0.298710000000     0.916740000000     0.0796443  
C287     C      0.235700000000     0.319430000000     0.099190000000     0.0818228  
C288     C      0.376210000000     0.429120000000     0.783150000000     0.0748302  
C289     C      0.246770000000     0.812450000000     0.836360000000     0.366473   
C290     C      0.372010000000     0.756270000000     0.771000000000     0.363115   
C291     C      0.255520000000     0.804050000000     0.678330000000     0.367968   
C292     C      0.361630000000     0.872340000000     0.756530000000     0.365891   
C293     C      0.945410000000     0.944950000000     0.329070000000     0.364572   
C294     C      0.060200000000     0.881430000000     0.387450000000     0.363462   
C295     C      0.057010000000     0.996810000000     0.422350000000     0.367829   
C296     C      0.955370000000     0.922830000000     0.491760000000     0.360921   
C297     C      0.116630000000     0.986200000000     0.784170000000     0.371008   
C298     C      0.985720000000     0.023450000000     0.706360000000     0.364958   
C299     C      0.039640000000     0.061500000000     0.857320000000     0.36984    
C300     C      0.101940000000     0.101030000000     0.726890000000     0.362963   
C301     C      0.240500000000     0.740100000000     0.397490000000     0.373968   
C302     C      0.145320000000     0.652190000000     0.429450000000     0.355851   
C303     C      0.167580000000     0.679320000000     0.273090000000     0.364458   
C304     C      0.281570000000     0.629280000000     0.359430000000     0.352272   
C305     C      0.897860000000     0.721830000000     0.434540000000     0.365354   
C306     C      0.009350000000     0.801850000000     0.384340000000     0.366385   
C307     C      0.954260000000     0.801470000000     0.536630000000     0.363834   
C308     C      0.045800000000     0.712920000000     0.475880000000     0.368621   
C309     C      0.183660000000     0.865380000000     0.621710000000     0.367195   
C310     C      0.081560000000     0.948710000000     0.604340000000     0.363468   
C311     C      0.008520000000     0.855180000000     0.650300000000     0.359093   
C312     C      0.120750000000     0.897010000000     0.750300000000     0.362029   
C313     C      0.240750000000     0.029750000000     0.599860000000     0.370723   
C314     C      0.152990000000     0.973640000000     0.508460000000     0.366513   
C315     C      0.269810000000     0.041490000000     0.433530000000     0.366527   
C316     C      0.318560000000     0.952600000000     0.518340000000     0.360218   
C317     C      0.868170000000     0.646700000000     0.517860000000     0.366113   
C318     C      0.898520000000     0.676000000000     0.677650000000     0.363484   
C319     C      0.775200000000     0.608890000000     0.621730000000     0.365612   
C320     C      0.936670000000     0.573230000000     0.613160000000     0.363546   
C321     C      0.213170000000     0.072820000000     0.652940000000     0.0795208  
C322     C      0.069590000000     0.976240000000     0.530690000000     0.0833298  
C323     C      0.836780000000     0.682650000000     0.457390000000     0.0758424  
C324     C      0.959440000000     0.810290000000     0.619430000000     0.074075   
C325     C      0.320970000000     0.582450000000     0.395950000000     0.0752043  
C326     C      0.071430000000     0.655090000000     0.472220000000     0.0757911  
C327     C      0.955050000000     0.514990000000     0.628930000000     0.0790013  
C328     C      0.124920000000     0.931150000000     0.819300000000     0.075673   
C329     C      0.107320000000     0.661570000000     0.718220000000     0.0749019  
C330     C      0.395400000000     0.935980000000     0.549070000000     0.0764231  
C331     C      0.061080000000     0.056530000000     0.938290000000     0.0818481  
C332     C      0.073030000000     0.830490000000     0.343510000000     0.0780971  
C333     C      0.893250000000     0.698540000000     0.755170000000     0.0743976  
C334     C      0.228400000000     0.798710000000     0.416740000000     0.0796556  
C335     C      0.235700000000     0.819430000000     0.599190000000     0.0818424  
C336     C      0.376210000000     0.929120000000     0.283150000000     0.0748234  
C337     C      0.246770000000     0.812450000000     0.336360000000     0.366347   
C338     C      0.372010000000     0.756270000000     0.271000000000     0.363126   
C339     C      0.255520000000     0.804050000000     0.178330000000     0.367967   
C340     C      0.361630000000     0.872340000000     0.256530000000     0.365891   
C341     C      0.945410000000     0.944940000000     0.829070000000     0.364614   
C342     C      0.060200000000     0.881430000000     0.887450000000     0.363465   
C343     C      0.057010000000     0.996810000000     0.922350000000     0.367848   
C344     C      0.955370000000     0.922830000000     0.991760000000     0.36107    
C345     C      0.116630000000     0.986200000000     0.284170000000     0.371006   
C346     C      0.985720000000     0.023450000000     0.206360000000     0.364959   
C347     C      0.039640000000     0.061500000000     0.357320000000     0.36984    
C348     C      0.101940000000     0.101030000000     0.226890000000     0.362962   
C349     C      0.240500000000     0.740100000000     0.897490000000     0.373976   
C350     C      0.145320000000     0.652190000000     0.929450000000     0.355872   
C351     C      0.167580000000     0.679320000000     0.773090000000     0.364458   
C352     C      0.281570000000     0.629280000000     0.859430000000     0.352179   
C353     C      0.897860000000     0.721830000000     0.934540000000     0.365481   
C354     C      0.009360000000     0.801850000000     0.884340000000     0.366425   
C355     C      0.954260000000     0.801470000000     0.036630000000     0.363622   
C356     C      0.045800000000     0.712920000000     0.975880000000     0.368628   
C357     C      0.183660000000     0.865380000000     0.121710000000     0.367186   
C358     C      0.081560000000     0.948710000000     0.104340000000     0.363411   
C359     C      0.008520000000     0.855180000000     0.150300000000     0.359094   
C360     C      0.120750000000     0.897000000000     0.250300000000     0.361905   
C361     C      0.240750000000     0.029750000000     0.099860000000     0.370729   
C362     C      0.152990000000     0.973640000000     0.008460000000     0.366299   
C363     C      0.269810000000     0.041490000000     0.933530000000     0.366514   
C364     C      0.318570000000     0.952600000000     0.018340000000     0.359839   
C365     C      0.868180000000     0.646700000000     0.017860000000     0.366045   
C366     C      0.898520000000     0.676000000000     0.177650000000     0.363487   
C367     C      0.775200000000     0.608890000000     0.121730000000     0.365608   
C368     C      0.936670000000     0.573230000000     0.113160000000     0.363539   
C369     C      0.213170000000     0.072820000000     0.152940000000     0.0795194  
C370     C      0.069590000000     0.976240000000     0.030680000000     0.0833481  
C371     C      0.836780000000     0.682650000000     0.957390000000     0.0758567  
C372     C      0.959440000000     0.810290000000     0.119430000000     0.0740658  
C373     C      0.320970000000     0.582450000000     0.895950000000     0.0752405  
C374     C      0.071430000000     0.655090000000     0.972220000000     0.075997   
C375     C      0.955050000000     0.514990000000     0.128930000000     0.0789861  
C376     C      0.124920000000     0.931150000000     0.319300000000     0.0756804  
C377     C      0.107320000000     0.661570000000     0.218220000000     0.0749022  
C378     C      0.395400000000     0.935980000000     0.049080000000     0.0763903  
C379     C      0.061080000000     0.056530000000     0.438290000000     0.0818466  
C380     C      0.073030000000     0.830490000000     0.843510000000     0.0780922  
C381     C      0.893250000000     0.698540000000     0.255170000000     0.0744287  
C382     C      0.228400000000     0.798710000000     0.916740000000     0.0796574  
C383     C      0.235700000000     0.819430000000     0.099190000000     0.0818446  
C384     C      0.376210000000     0.929120000000     0.783150000000     0.0748319  
Cd1      Cd     0.809800000000     0.311740000000     0.760150000000     0.514239   
Cd2      Cd     0.503650000000     0.437610000000     0.408320000000     0.508142   
Cd3      Cd     0.560450000000     0.543370000000     0.766010000000     0.519193   
Cd4      Cd     0.708400000000     0.177680000000     0.362530000000     0.508305   
Cd5      Cd     0.476460000000     0.261940000000     0.458240000000     0.516753   
Cd6      Cd     0.596330000000     0.390190000000     0.656390000000     0.51375    
Cd7      Cd     0.745790000000     0.500960000000     0.511180000000     0.512925   
Cd8      Cd     0.371700000000     0.127250000000     0.611170000000     0.514723   
Cd9      Cd     0.809800000000     0.311740000000     0.260150000000     0.514237   
Cd10     Cd     0.503650000000     0.437610000000     0.908310000000     0.508159   
Cd11     Cd     0.560450000000     0.543370000000     0.266010000000     0.519194   
Cd12     Cd     0.708400000000     0.177680000000     0.862530000000     0.508303   
Cd13     Cd     0.476460000000     0.261940000000     0.958240000000     0.516814   
Cd14     Cd     0.596330000000     0.390190000000     0.156390000000     0.513751   
Cd15     Cd     0.745790000000     0.500960000000     0.011180000000     0.512747   
Cd16     Cd     0.371700000000     0.127250000000     0.111170000000     0.514709   
Cd17     Cd     0.809800000000     0.811740000000     0.760150000000     0.514239   
Cd18     Cd     0.503650000000     0.937610000000     0.408320000000     0.50813    
Cd19     Cd     0.560450000000     0.043370000000     0.766010000000     0.5192     
Cd20     Cd     0.708400000000     0.677680000000     0.362530000000     0.508308   
Cd21     Cd     0.476460000000     0.761950000000     0.458240000000     0.51675    
Cd22     Cd     0.596330000000     0.890190000000     0.656390000000     0.513731   
Cd23     Cd     0.745790000000     0.000960000000     0.511180000000     0.512945   
Cd24     Cd     0.371700000000     0.627250000000     0.611170000000     0.514735   
Cd25     Cd     0.809800000000     0.811740000000     0.260150000000     0.514237   
Cd26     Cd     0.503650000000     0.937610000000     0.908310000000     0.508147   
Cd27     Cd     0.560450000000     0.043370000000     0.266010000000     0.519212   
Cd28     Cd     0.708400000000     0.677680000000     0.862530000000     0.508312   
Cd29     Cd     0.476460000000     0.761950000000     0.958240000000     0.516812   
Cd30     Cd     0.596330000000     0.890190000000     0.156390000000     0.513725   
Cd31     Cd     0.745790000000     0.000960000000     0.011180000000     0.512784   
Cd32     Cd     0.371700000000     0.627250000000     0.111170000000     0.514724   
Cd33     Cd     0.309800000000     0.311740000000     0.760150000000     0.514236   
Cd34     Cd     0.003650000000     0.437610000000     0.408320000000     0.508141   
Cd35     Cd     0.060450000000     0.543370000000     0.766010000000     0.519189   
Cd36     Cd     0.208400000000     0.177680000000     0.362530000000     0.508321   
Cd37     Cd     0.976460000000     0.261940000000     0.458240000000     0.516755   
Cd38     Cd     0.096330000000     0.390190000000     0.656390000000     0.51375    
Cd39     Cd     0.245790000000     0.500960000000     0.511180000000     0.512925   
Cd40     Cd     0.871700000000     0.127250000000     0.611170000000     0.514725   
Cd41     Cd     0.309800000000     0.311740000000     0.260150000000     0.514234   
Cd42     Cd     0.003650000000     0.437610000000     0.908310000000     0.508157   
Cd43     Cd     0.060450000000     0.543370000000     0.266010000000     0.519191   
Cd44     Cd     0.208400000000     0.177680000000     0.862530000000     0.508335   
Cd45     Cd     0.976460000000     0.261940000000     0.958240000000     0.516817   
Cd46     Cd     0.096330000000     0.390190000000     0.156390000000     0.51375    
Cd47     Cd     0.245790000000     0.500960000000     0.011180000000     0.512749   
Cd48     Cd     0.871700000000     0.127250000000     0.111170000000     0.514711   
Cd49     Cd     0.309800000000     0.811740000000     0.760150000000     0.514236   
Cd50     Cd     0.003650000000     0.937610000000     0.408320000000     0.508129   
Cd51     Cd     0.060450000000     0.043370000000     0.766010000000     0.519198   
Cd52     Cd     0.208400000000     0.677680000000     0.362530000000     0.508321   
Cd53     Cd     0.976460000000     0.761950000000     0.458240000000     0.516753   
Cd54     Cd     0.096330000000     0.890190000000     0.656390000000     0.51373    
Cd55     Cd     0.245790000000     0.000960000000     0.511180000000     0.512964   
Cd56     Cd     0.871700000000     0.627250000000     0.611170000000     0.514738   
Cd57     Cd     0.309800000000     0.811740000000     0.260150000000     0.514234   
Cd58     Cd     0.003650000000     0.937610000000     0.908310000000     0.508144   
Cd59     Cd     0.060450000000     0.043370000000     0.266010000000     0.5192     
Cd60     Cd     0.208400000000     0.677680000000     0.862530000000     0.508322   
Cd61     Cd     0.976460000000     0.761950000000     0.958240000000     0.516815   
Cd62     Cd     0.096330000000     0.890190000000     0.156390000000     0.513738   
Cd63     Cd     0.245790000000     0.000960000000     0.011180000000     0.512767   
Cd64     Cd     0.871700000000     0.627250000000     0.111170000000     0.514724   
H1       H      0.253140000000     0.529410000000     0.669030000000     0.124512   
H2       H      0.704770000000     0.113210000000     0.606290000000     0.115049   
H3       H      0.675200000000     0.569070000000     0.646730000000     0.0443745  
H4       H      0.218470000000     0.578900000000     0.689310000000     0.0431944  
H5       H      0.577310000000     0.499160000000     0.596420000000     0.121011   
H6       H      0.604650000000     0.437070000000     0.494490000000     0.139797   
H7       H      0.537130000000     0.462530000000     0.522270000000     0.0380739  
H8       H      0.566240000000     0.501930000000     0.518590000000     0.0332302  
H9       H      0.381200000000     0.140150000000     0.449420000000     0.114809   
H10      H      0.357040000000     0.195690000000     0.389000000000     0.124422   
H11      H      0.304680000000     0.172510000000     0.441670000000     0.0496764  
H12      H      0.326280000000     0.199250000000     0.485540000000     0.0566096  
H13      H      0.438540000000     0.348310000000     0.666230000000     0.121034   
H14      H      0.424200000000     0.340980000000     0.569930000000     0.112193   
H15      H      0.491740000000     0.295050000000     0.618240000000     0.0559785  
H16      H      0.431070000000     0.295320000000     0.634770000000     0.0400722  
H17      H      0.763300000000     0.555260000000     0.366280000000     0.124723   
H18      H      0.838200000000     0.104700000000     0.331170000000     0.116192   
H19      H      0.822950000000     0.095630000000     0.428910000000     0.0488955  
H20      H      0.854060000000     0.068550000000     0.391310000000     0.0379177  
H21      H      0.607220000000     0.195780000000     0.504570000000     0.121236   
H22      H      0.628440000000     0.121050000000     0.482650000000     0.111803   
H23      H      0.554440000000     0.141410000000     0.500340000000     0.0337313  
H24      H      0.548750000000     0.153140000000     0.441680000000     0.0502005  
H25      H      0.417100000000     0.510310000000     0.692130000000     0.116505   
H26      H      0.501680000000     0.052040000000     0.602100000000     0.116841   
H27      H      0.483270000000     0.997570000000     0.619270000000     0.0331298  
H28      H      0.421540000000     0.506970000000     0.613280000000     0.0396083  
H29      H      0.653870000000     0.382570000000     0.809630000000     0.115034   
H30      H      0.679280000000     0.460680000000     0.788630000000     0.122588   
H31      H      0.586510000000     0.433040000000     0.824530000000     0.061225   
H32      H      0.642070000000     0.429390000000     0.853010000000     0.0451311  
H33      H      0.649510000000     0.624770000000     0.685280000000     0.109868   
H34      H      0.663120000000     0.196490000000     0.707030000000     0.117418   
H35      H      0.592060000000     0.172290000000     0.686920000000     0.0327055  
H36      H      0.580520000000     0.162360000000     0.245550000000     0.0538064  
H37      H      0.347300000000     0.406360000000     0.509420000000     0.1211     
H38      H      0.446010000000     0.396570000000     0.551260000000     0.112825   
H39      H      0.905100000000     0.462400000000     0.547680000000     0.0469421  
H40      H      0.888850000000     0.429370000000     0.585060000000     0.0297587  
H41      H      0.495180000000     0.573440000000     0.910420000000     0.118208   
H42      H      0.618830000000     0.523310000000     0.425770000000     0.129298   
H43      H      0.589090000000     0.575290000000     0.940930000000     0.0339105  
H44      H      0.541610000000     0.555710000000     0.970890000000     0.0309001  
H45      H      0.615140000000     0.349270000000     0.398790000000     0.112935   
H46      H      0.499840000000     0.328150000000     0.324930000000     0.130254   
H47      H      0.577330000000     0.342250000000     0.309800000000     0.039722   
H48      H      0.596610000000     0.308850000000     0.345620000000     0.039936   
H49      H      0.929690000000     0.232740000000     0.798730000000     0.124595   
H50      H      0.431930000000     0.218610000000     0.698050000000     0.120037   
H51      H      0.412750000000     0.179200000000     0.773830000000     0.0394867  
H52      H      0.355430000000     0.192010000000     0.755860000000     0.0588814  
H53      H      0.681890000000     0.318920000000     0.866200000000     0.109095   
H54      H      0.792360000000     0.270670000000     0.922330000000     0.125694   
H55      H      0.748480000000     0.318010000000     0.934870000000     0.0353322  
H56      H      0.695760000000     0.293620000000     0.436030000000     0.0390608  
H57      H      0.702040000000     0.282860000000     0.641010000000     0.123587   
H58      H      0.752740000000     0.371040000000     0.601780000000     0.120822   
H59      H      0.772470000000     0.316750000000     0.587420000000     0.0346268  
H60      H      0.711750000000     0.310070000000     0.572450000000     0.0364461  
H61      H      0.416640000000     0.401200000000     0.734330000000     0.120577   
H62      H      0.429740000000     0.464390000000     0.765900000000     0.120985   
H63      H      0.851050000000     0.444420000000     0.263730000000     0.0352839  
H64      H      0.859200000000     0.421830000000     0.315560000000     0.0566802  
H65      H      0.253140000000     0.529410000000     0.169030000000     0.124514   
H66      H      0.704770000000     0.113210000000     0.106290000000     0.115028   
H67      H      0.675200000000     0.569070000000     0.146730000000     0.0443701  
H68      H      0.218470000000     0.578900000000     0.189310000000     0.043196   
H69      H      0.577310000000     0.499160000000     0.096420000000     0.12097    
H70      H      0.604650000000     0.437070000000     0.994490000000     0.139922   
H71      H      0.537130000000     0.462530000000     0.022270000000     0.0380112  
H72      H      0.566240000000     0.501930000000     0.018590000000     0.0331794  
H73      H      0.381200000000     0.140150000000     0.949420000000     0.114826   
H74      H      0.357040000000     0.195690000000     0.889000000000     0.124428   
H75      H      0.304680000000     0.172510000000     0.941670000000     0.0496941  
H76      H      0.326280000000     0.199250000000     0.985540000000     0.0566659  
H77      H      0.438540000000     0.348310000000     0.166230000000     0.121033   
H78      H      0.424200000000     0.340980000000     0.069930000000     0.112158   
H79      H      0.491740000000     0.295050000000     0.118240000000     0.0559729  
H80      H      0.431070000000     0.295320000000     0.134770000000     0.0400685  
H81      H      0.763300000000     0.555260000000     0.866280000000     0.124718   
H82      H      0.838200000000     0.104700000000     0.831170000000     0.116195   
H83      H      0.822950000000     0.095630000000     0.928910000000     0.0489179  
H84      H      0.854060000000     0.068550000000     0.891310000000     0.0379303  
H85      H      0.607220000000     0.195780000000     0.004570000000     0.121091   
H86      H      0.628440000000     0.121050000000     0.982650000000     0.111881   
H87      H      0.554440000000     0.141410000000     0.000340000000     0.0335564  
H88      H      0.548750000000     0.153140000000     0.941680000000     0.0501672  
H89      H      0.417100000000     0.510310000000     0.192130000000     0.116506   
H90      H      0.501680000000     0.052040000000     0.102100000000     0.116826   
H91      H      0.483270000000     0.997570000000     0.119270000000     0.0331222  
H92      H      0.421540000000     0.506960000000     0.113280000000     0.0395918  
H93      H      0.653870000000     0.382570000000     0.309620000000     0.115055   
H94      H      0.679280000000     0.460680000000     0.288630000000     0.122587   
H95      H      0.586510000000     0.433040000000     0.324530000000     0.061226   
H96      H      0.642070000000     0.429390000000     0.353010000000     0.0451281  
H97      H      0.649510000000     0.624770000000     0.185280000000     0.109864   
H98      H      0.663120000000     0.196490000000     0.207030000000     0.117414   
H99      H      0.592060000000     0.172290000000     0.186920000000     0.0326984  
H100     H      0.580520000000     0.162360000000     0.745550000000     0.0538061  
H101     H      0.347300000000     0.406360000000     0.009420000000     0.121063   
H102     H      0.446010000000     0.396570000000     0.051260000000     0.112805   
H103     H      0.905100000000     0.462400000000     0.047680000000     0.0469253  
H104     H      0.888850000000     0.429370000000     0.085060000000     0.0297636  
H105     H      0.495180000000     0.573440000000     0.410420000000     0.118191   
H106     H      0.618830000000     0.523310000000     0.925770000000     0.129316   
H107     H      0.589090000000     0.575290000000     0.440930000000     0.0338974  
H108     H      0.541610000000     0.555710000000     0.470890000000     0.0308325  
H109     H      0.615140000000     0.349270000000     0.898790000000     0.112947   
H110     H      0.499840000000     0.328150000000     0.824920000000     0.130217   
H111     H      0.577330000000     0.342250000000     0.809800000000     0.0397238  
H112     H      0.596610000000     0.308850000000     0.845620000000     0.0399387  
H113     H      0.929690000000     0.232740000000     0.298730000000     0.124598   
H114     H      0.431920000000     0.218610000000     0.198050000000     0.120067   
H115     H      0.412750000000     0.179200000000     0.273830000000     0.0394844  
H116     H      0.355430000000     0.192010000000     0.255860000000     0.0588846  
H117     H      0.681890000000     0.318920000000     0.366200000000     0.109084   
H118     H      0.792360000000     0.270670000000     0.422320000000     0.125693   
H119     H      0.748480000000     0.318010000000     0.434870000000     0.035304   
H120     H      0.695760000000     0.293620000000     0.936030000000     0.0390866  
H121     H      0.702040000000     0.282860000000     0.141010000000     0.123524   
H122     H      0.752740000000     0.371040000000     0.101780000000     0.120812   
H123     H      0.772470000000     0.316750000000     0.087420000000     0.0345892  
H124     H      0.711750000000     0.310070000000     0.072450000000     0.0364014  
H125     H      0.416640000000     0.401200000000     0.234330000000     0.120577   
H126     H      0.429740000000     0.464390000000     0.265900000000     0.120983   
H127     H      0.851050000000     0.444420000000     0.763730000000     0.0352831  
H128     H      0.859200000000     0.421830000000     0.815560000000     0.0566876  
H129     H      0.253140000000     0.029410000000     0.669030000000     0.124524   
H130     H      0.704770000000     0.613210000000     0.606290000000     0.115049   
H131     H      0.675200000000     0.069070000000     0.646730000000     0.044377   
H132     H      0.218470000000     0.078900000000     0.689310000000     0.0431948  
H133     H      0.577310000000     0.999160000000     0.596420000000     0.121      
H134     H      0.604650000000     0.937070000000     0.494490000000     0.139793   
H135     H      0.537130000000     0.962530000000     0.522270000000     0.0380909  
H136     H      0.566240000000     0.001930000000     0.518590000000     0.0332787  
H137     H      0.381200000000     0.640150000000     0.449420000000     0.114815   
H138     H      0.357040000000     0.695690000000     0.389000000000     0.124425   
H139     H      0.304680000000     0.672510000000     0.441670000000     0.0496703  
H140     H      0.326280000000     0.699250000000     0.485540000000     0.0566066  
H141     H      0.438540000000     0.848310000000     0.666230000000     0.121032   
H142     H      0.424200000000     0.840980000000     0.569930000000     0.112192   
H143     H      0.491740000000     0.795050000000     0.618240000000     0.0559788  
H144     H      0.431070000000     0.795320000000     0.634770000000     0.040072   
H145     H      0.763300000000     0.055260000000     0.366280000000     0.12472    
H146     H      0.838200000000     0.604710000000     0.331170000000     0.116185   
H147     H      0.822950000000     0.595630000000     0.428910000000     0.0488739  
H148     H      0.854060000000     0.568550000000     0.391320000000     0.0379044  
H149     H      0.607220000000     0.695780000000     0.504570000000     0.121236   
H150     H      0.628440000000     0.621050000000     0.482650000000     0.111801   
H151     H      0.554440000000     0.641410000000     0.500340000000     0.033732   
H152     H      0.548750000000     0.653140000000     0.441680000000     0.0502043  
H153     H      0.417100000000     0.010310000000     0.692130000000     0.116512   
H154     H      0.501680000000     0.552050000000     0.602100000000     0.116826   
H155     H      0.483270000000     0.497570000000     0.619270000000     0.033153   
H156     H      0.421540000000     0.006960000000     0.613280000000     0.0396046  
H157     H      0.653870000000     0.882570000000     0.809630000000     0.11504    
H158     H      0.679280000000     0.960680000000     0.788630000000     0.122581   
H159     H      0.586510000000     0.933040000000     0.824530000000     0.0612252  
H160     H      0.642070000000     0.929390000000     0.853010000000     0.0451296  
H161     H      0.649510000000     0.124770000000     0.685280000000     0.10987    
H162     H      0.663120000000     0.696490000000     0.707030000000     0.117419   
H163     H      0.592060000000     0.672290000000     0.686920000000     0.0327124  
H164     H      0.580520000000     0.662360000000     0.245550000000     0.0538197  
H165     H      0.347300000000     0.906360000000     0.509420000000     0.121049   
H166     H      0.446010000000     0.896560000000     0.551260000000     0.112766   
H167     H      0.905100000000     0.962400000000     0.547680000000     0.046945   
H168     H      0.888850000000     0.929370000000     0.585060000000     0.0297537  
H169     H      0.495180000000     0.073440000000     0.910420000000     0.11821    
H170     H      0.618830000000     0.023310000000     0.425770000000     0.129249   
H171     H      0.589090000000     0.075290000000     0.940930000000     0.0339136  
H172     H      0.541610000000     0.055710000000     0.970890000000     0.0308907  
H173     H      0.615140000000     0.849270000000     0.398790000000     0.112935   
H174     H      0.499840000000     0.828150000000     0.324930000000     0.130248   
H175     H      0.577330000000     0.842250000000     0.309800000000     0.0397268  
H176     H      0.596610000000     0.808850000000     0.345620000000     0.0399386  
H177     H      0.929690000000     0.732740000000     0.798740000000     0.124566   
H178     H      0.431920000000     0.718610000000     0.698050000000     0.120067   
H179     H      0.412750000000     0.679200000000     0.773830000000     0.0394907  
H180     H      0.355430000000     0.692010000000     0.755860000000     0.058892   
H181     H      0.681890000000     0.818920000000     0.866200000000     0.109095   
H182     H      0.792360000000     0.770670000000     0.922330000000     0.125695   
H183     H      0.748470000000     0.818010000000     0.934870000000     0.0353255  
H184     H      0.695760000000     0.793620000000     0.436030000000     0.0390607  
H185     H      0.702040000000     0.782860000000     0.641010000000     0.123534   
H186     H      0.752740000000     0.871040000000     0.601780000000     0.120812   
H187     H      0.772470000000     0.816750000000     0.587420000000     0.034618   
H188     H      0.711750000000     0.810070000000     0.572450000000     0.0364402  
H189     H      0.416640000000     0.901190000000     0.734330000000     0.120578   
H190     H      0.429740000000     0.964390000000     0.765900000000     0.120956   
H191     H      0.851050000000     0.944420000000     0.263730000000     0.0352767  
H192     H      0.859200000000     0.921830000000     0.315560000000     0.0566787  
H193     H      0.253140000000     0.029410000000     0.169030000000     0.124525   
H194     H      0.704770000000     0.613210000000     0.106290000000     0.115029   
H195     H      0.675200000000     0.069070000000     0.146730000000     0.0443723  
H196     H      0.218470000000     0.078900000000     0.189310000000     0.0431964  
H197     H      0.577310000000     0.999160000000     0.096420000000     0.12096    
H198     H      0.604650000000     0.937070000000     0.994490000000     0.139917   
H199     H      0.537130000000     0.962530000000     0.022270000000     0.0380181  
H200     H      0.566240000000     0.001930000000     0.018590000000     0.0332169  
H201     H      0.381200000000     0.640150000000     0.949420000000     0.114807   
H202     H      0.357040000000     0.695690000000     0.889000000000     0.124425   
H203     H      0.304680000000     0.672510000000     0.941670000000     0.049688   
H204     H      0.326280000000     0.699250000000     0.985540000000     0.0566682  
H205     H      0.438540000000     0.848310000000     0.166230000000     0.121031   
H206     H      0.424200000000     0.840980000000     0.069930000000     0.11216    
H207     H      0.491740000000     0.795050000000     0.118240000000     0.0559728  
H208     H      0.431070000000     0.795320000000     0.134770000000     0.0400682  
H209     H      0.763300000000     0.055260000000     0.866280000000     0.124719   
H210     H      0.838200000000     0.604710000000     0.831170000000     0.116194   
H211     H      0.822950000000     0.595630000000     0.928910000000     0.0489148  
H212     H      0.854060000000     0.568550000000     0.891310000000     0.0379275  
H213     H      0.607220000000     0.695780000000     0.004570000000     0.121089   
H214     H      0.628440000000     0.621050000000     0.982650000000     0.111858   
H215     H      0.554440000000     0.641410000000     0.000340000000     0.0335578  
H216     H      0.548750000000     0.653140000000     0.941680000000     0.0501738  
H217     H      0.417100000000     0.010310000000     0.192130000000     0.116512   
H218     H      0.501680000000     0.552050000000     0.102100000000     0.116812   
H219     H      0.483270000000     0.497570000000     0.119270000000     0.0331418  
H220     H      0.421540000000     0.006960000000     0.113280000000     0.0395952  
H221     H      0.653870000000     0.882570000000     0.309620000000     0.115069   
H222     H      0.679280000000     0.960680000000     0.288630000000     0.122578   
H223     H      0.586510000000     0.933040000000     0.324530000000     0.0612266  
H224     H      0.642070000000     0.929390000000     0.353010000000     0.0451268  
H225     H      0.649510000000     0.124770000000     0.185280000000     0.109867   
H226     H      0.663120000000     0.696490000000     0.207030000000     0.117414   
H227     H      0.592060000000     0.672290000000     0.186920000000     0.0327049  
H228     H      0.580520000000     0.662360000000     0.745550000000     0.05382    
H229     H      0.347300000000     0.906360000000     0.009420000000     0.120973   
H230     H      0.446010000000     0.896570000000     0.051260000000     0.112801   
H231     H      0.905100000000     0.962400000000     0.047680000000     0.0469512  
H232     H      0.888850000000     0.929370000000     0.085060000000     0.0297784  
H233     H      0.495180000000     0.073440000000     0.410420000000     0.118198   
H234     H      0.618830000000     0.023310000000     0.925770000000     0.12932    
H235     H      0.589090000000     0.075290000000     0.440930000000     0.033889   
H236     H      0.541610000000     0.055710000000     0.470890000000     0.0308341  
H237     H      0.615140000000     0.849270000000     0.898790000000     0.112947   
H238     H      0.499840000000     0.828150000000     0.824930000000     0.13022    
H239     H      0.577330000000     0.842250000000     0.809800000000     0.0397223  
H240     H      0.596610000000     0.808850000000     0.845620000000     0.0399396  
H241     H      0.929690000000     0.732740000000     0.298730000000     0.124564   
H242     H      0.431920000000     0.718610000000     0.198050000000     0.120069   
H243     H      0.412750000000     0.679200000000     0.273830000000     0.0394829  
H244     H      0.355420000000     0.692010000000     0.255860000000     0.0588951  
H245     H      0.681890000000     0.818920000000     0.366200000000     0.109085   
H246     H      0.792360000000     0.770670000000     0.422330000000     0.125679   
H247     H      0.748470000000     0.818010000000     0.434870000000     0.0352989  
H248     H      0.695760000000     0.793620000000     0.936030000000     0.0390862  
H249     H      0.702040000000     0.782860000000     0.141010000000     0.123524   
H250     H      0.752740000000     0.871040000000     0.101780000000     0.120796   
H251     H      0.772470000000     0.816750000000     0.087420000000     0.0345918  
H252     H      0.711750000000     0.810070000000     0.072450000000     0.0364027  
H253     H      0.416640000000     0.901190000000     0.234330000000     0.120578   
H254     H      0.429740000000     0.964390000000     0.265900000000     0.120988   
H255     H      0.851050000000     0.944420000000     0.763730000000     0.0352813  
H256     H      0.859200000000     0.921830000000     0.815560000000     0.0566865  
H257     H      0.753140000000     0.529410000000     0.669030000000     0.124511   
H258     H      0.204770000000     0.113210000000     0.606290000000     0.115046   
H259     H      0.175200000000     0.569070000000     0.646730000000     0.0443737  
H260     H      0.718470000000     0.578900000000     0.689310000000     0.0431938  
H261     H      0.077310000000     0.499160000000     0.596420000000     0.121008   
H262     H      0.104650000000     0.437070000000     0.494490000000     0.139794   
H263     H      0.037130000000     0.462530000000     0.522270000000     0.0380813  
H264     H      0.066240000000     0.501930000000     0.518590000000     0.0332489  
H265     H      0.881200000000     0.140150000000     0.449420000000     0.114806   
H266     H      0.857040000000     0.195690000000     0.389000000000     0.124424   
H267     H      0.804680000000     0.172510000000     0.441670000000     0.0496699  
H268     H      0.826280000000     0.199250000000     0.485540000000     0.0566076  
H269     H      0.938540000000     0.348310000000     0.666230000000     0.121034   
H270     H      0.924200000000     0.340980000000     0.569930000000     0.112193   
H271     H      0.991740000000     0.295050000000     0.618240000000     0.0559799  
H272     H      0.931070000000     0.295320000000     0.634770000000     0.0400724  
H273     H      0.263310000000     0.555260000000     0.366280000000     0.124742   
H274     H      0.338200000000     0.104700000000     0.331170000000     0.116187   
H275     H      0.322950000000     0.095630000000     0.428910000000     0.0489149  
H276     H      0.354060000000     0.068550000000     0.391310000000     0.0379236  
H277     H      0.107220000000     0.195780000000     0.504570000000     0.121236   
H278     H      0.128440000000     0.121050000000     0.482650000000     0.111803   
H279     H      0.054440000000     0.141410000000     0.500340000000     0.0337304  
H280     H      0.048750000000     0.153140000000     0.441680000000     0.0502001  
H281     H      0.917100000000     0.510310000000     0.692130000000     0.116505   
H282     H      0.001680000000     0.052040000000     0.602100000000     0.116841   
H283     H      0.983270000000     0.997570000000     0.619270000000     0.0331268  
H284     H      0.921540000000     0.506960000000     0.613280000000     0.0396014  
H285     H      0.153870000000     0.382570000000     0.809630000000     0.115034   
H286     H      0.179280000000     0.460680000000     0.788630000000     0.122588   
H287     H      0.086510000000     0.433040000000     0.824530000000     0.0612266  
H288     H      0.142070000000     0.429390000000     0.853010000000     0.0451334  
H289     H      0.149510000000     0.624770000000     0.685280000000     0.109868   
H290     H      0.163120000000     0.196490000000     0.707030000000     0.117415   
H291     H      0.092060000000     0.172290000000     0.686920000000     0.0327049  
H292     H      0.080520000000     0.162360000000     0.245550000000     0.0538055  
H293     H      0.847300000000     0.406360000000     0.509420000000     0.1211     
H294     H      0.946010000000     0.396570000000     0.551260000000     0.112826   
H295     H      0.405100000000     0.462400000000     0.547680000000     0.0469424  
H296     H      0.388850000000     0.429370000000     0.585060000000     0.0297588  
H297     H      0.995180000000     0.573440000000     0.910420000000     0.118212   
H298     H      0.118830000000     0.523310000000     0.425770000000     0.129299   
H299     H      0.089090000000     0.575290000000     0.940930000000     0.0339185  
H300     H      0.041610000000     0.555710000000     0.970890000000     0.0308892  
H301     H      0.115140000000     0.349270000000     0.398790000000     0.112935   
H302     H      0.999840000000     0.328150000000     0.324930000000     0.130257   
H303     H      0.077330000000     0.342250000000     0.309800000000     0.0397217  
H304     H      0.096610000000     0.308850000000     0.345620000000     0.0399361  
H305     H      0.429690000000     0.232740000000     0.798730000000     0.124628   
H306     H      0.931920000000     0.218610000000     0.698050000000     0.120069   
H307     H      0.912750000000     0.179200000000     0.773830000000     0.0394834  
H308     H      0.855430000000     0.192010000000     0.755860000000     0.0588822  
H309     H      0.181890000000     0.318920000000     0.866200000000     0.109095   
H310     H      0.292360000000     0.270670000000     0.922330000000     0.125694   
H311     H      0.248480000000     0.318010000000     0.934870000000     0.0353325  
H312     H      0.195760000000     0.293620000000     0.436030000000     0.0390609  
H313     H      0.202040000000     0.282860000000     0.641010000000     0.123534   
H314     H      0.252740000000     0.371040000000     0.601780000000     0.120822   
H315     H      0.272470000000     0.316750000000     0.587420000000     0.0346158  
H316     H      0.211750000000     0.310070000000     0.572450000000     0.0364366  
H317     H      0.916640000000     0.401200000000     0.734330000000     0.120578   
H318     H      0.929740000000     0.464390000000     0.765900000000     0.120987   
H319     H      0.351050000000     0.444420000000     0.263730000000     0.0352834  
H320     H      0.359200000000     0.421830000000     0.315560000000     0.05668    
H321     H      0.753140000000     0.529410000000     0.169030000000     0.124512   
H322     H      0.204770000000     0.113210000000     0.106290000000     0.115026   
H323     H      0.175200000000     0.569070000000     0.146730000000     0.0443672  
H324     H      0.718470000000     0.578900000000     0.189310000000     0.0431952  
H325     H      0.077310000000     0.499160000000     0.096420000000     0.120966   
H326     H      0.104650000000     0.437070000000     0.994490000000     0.139919   
H327     H      0.037130000000     0.462530000000     0.022270000000     0.0380191  
H328     H      0.066240000000     0.501930000000     0.018590000000     0.0331987  
H329     H      0.881200000000     0.140150000000     0.949420000000     0.114824   
H330     H      0.857040000000     0.195690000000     0.889000000000     0.12443    
H331     H      0.804680000000     0.172510000000     0.941670000000     0.0496915  
H332     H      0.826280000000     0.199250000000     0.985540000000     0.0566653  
H333     H      0.938540000000     0.348310000000     0.166230000000     0.121033   
H334     H      0.924200000000     0.340980000000     0.069930000000     0.112159   
H335     H      0.991740000000     0.295050000000     0.118240000000     0.055974   
H336     H      0.931070000000     0.295320000000     0.134770000000     0.0400692  
H337     H      0.263310000000     0.555260000000     0.866280000000     0.124746   
H338     H      0.338200000000     0.104700000000     0.831170000000     0.11619    
H339     H      0.322950000000     0.095630000000     0.928910000000     0.0489371  
H340     H      0.354060000000     0.068550000000     0.891310000000     0.0379337  
H341     H      0.107220000000     0.195780000000     0.004570000000     0.121089   
H342     H      0.128440000000     0.121050000000     0.982650000000     0.111859   
H343     H      0.054440000000     0.141410000000     0.000340000000     0.0335558  
H344     H      0.048750000000     0.153140000000     0.941680000000     0.0501692  
H345     H      0.917100000000     0.510310000000     0.192130000000     0.116505   
H346     H      0.001680000000     0.052040000000     0.102100000000     0.116827   
H347     H      0.983270000000     0.997570000000     0.119270000000     0.0331208  
H348     H      0.921540000000     0.506970000000     0.113280000000     0.0396015  
H349     H      0.153870000000     0.382570000000     0.309620000000     0.115055   
H350     H      0.179280000000     0.460680000000     0.288630000000     0.122587   
H351     H      0.086510000000     0.433040000000     0.324530000000     0.0612282  
H352     H      0.142070000000     0.429390000000     0.353010000000     0.0451304  
H353     H      0.149510000000     0.624770000000     0.185280000000     0.109864   
H354     H      0.163120000000     0.196490000000     0.207030000000     0.11741    
H355     H      0.092060000000     0.172290000000     0.186920000000     0.0326972  
H356     H      0.080520000000     0.162360000000     0.745550000000     0.0538054  
H357     H      0.847300000000     0.406360000000     0.009420000000     0.121056   
H358     H      0.946010000000     0.396570000000     0.051260000000     0.112806   
H359     H      0.405100000000     0.462400000000     0.047680000000     0.0469226  
H360     H      0.388850000000     0.429370000000     0.085060000000     0.0297611  
H361     H      0.995180000000     0.573440000000     0.410420000000     0.118194   
H362     H      0.118830000000     0.523310000000     0.925770000000     0.129317   
H363     H      0.089090000000     0.575290000000     0.440930000000     0.0338975  
H364     H      0.041610000000     0.555710000000     0.470890000000     0.0308316  
H365     H      0.115140000000     0.349270000000     0.898790000000     0.112947   
H366     H      0.999840000000     0.328150000000     0.824920000000     0.130221   
H367     H      0.077330000000     0.342250000000     0.809800000000     0.0397237  
H368     H      0.096610000000     0.308850000000     0.845620000000     0.0399391  
H369     H      0.429690000000     0.232740000000     0.298730000000     0.124595   
H370     H      0.931920000000     0.218610000000     0.198050000000     0.120068   
H371     H      0.912750000000     0.179200000000     0.273820000000     0.0394847  
H372     H      0.855430000000     0.192010000000     0.255860000000     0.0588882  
H373     H      0.181890000000     0.318920000000     0.366200000000     0.109084   
H374     H      0.292360000000     0.270670000000     0.422330000000     0.125679   
H375     H      0.248480000000     0.318010000000     0.434870000000     0.0353044  
H376     H      0.195760000000     0.293620000000     0.936030000000     0.0390867  
H377     H      0.202040000000     0.282860000000     0.141010000000     0.123577   
H378     H      0.252740000000     0.371040000000     0.101780000000     0.120811   
H379     H      0.272470000000     0.316750000000     0.087420000000     0.0345998  
H380     H      0.211750000000     0.310070000000     0.072450000000     0.0364107  
H381     H      0.916640000000     0.401200000000     0.234330000000     0.120578   
H382     H      0.929740000000     0.464390000000     0.265900000000     0.120985   
H383     H      0.351050000000     0.444420000000     0.763730000000     0.0352832  
H384     H      0.359200000000     0.421830000000     0.815560000000     0.056688   
H385     H      0.753140000000     0.029410000000     0.669030000000     0.124523   
H386     H      0.204770000000     0.613210000000     0.606290000000     0.115047   
H387     H      0.175200000000     0.069070000000     0.646730000000     0.0443762  
H388     H      0.718470000000     0.078900000000     0.689310000000     0.0431952  
H389     H      0.077310000000     0.999160000000     0.596420000000     0.120997   
H390     H      0.104650000000     0.937070000000     0.494490000000     0.139792   
H391     H      0.037130000000     0.962530000000     0.522270000000     0.0380892  
H392     H      0.066240000000     0.001930000000     0.518590000000     0.0332783  
H393     H      0.881200000000     0.640150000000     0.449420000000     0.11479    
H394     H      0.857030000000     0.695690000000     0.389000000000     0.124416   
H395     H      0.804680000000     0.672510000000     0.441670000000     0.0496702  
H396     H      0.826280000000     0.699250000000     0.485540000000     0.0566123  
H397     H      0.938540000000     0.848310000000     0.666230000000     0.121033   
H398     H      0.924200000000     0.840980000000     0.569930000000     0.112193   
H399     H      0.991740000000     0.795050000000     0.618240000000     0.0559802  
H400     H      0.931070000000     0.795320000000     0.634770000000     0.0400731  
H401     H      0.263310000000     0.055260000000     0.366280000000     0.124743   
H402     H      0.338200000000     0.604710000000     0.331170000000     0.116192   
H403     H      0.322950000000     0.595630000000     0.428910000000     0.0489078  
H404     H      0.354060000000     0.568550000000     0.391310000000     0.0379207  
H405     H      0.107220000000     0.695780000000     0.504570000000     0.121236   
H406     H      0.128440000000     0.621050000000     0.482650000000     0.111801   
H407     H      0.054440000000     0.641410000000     0.500340000000     0.0337319  
H408     H      0.048750000000     0.653140000000     0.441680000000     0.0502041  
H409     H      0.917100000000     0.010310000000     0.692130000000     0.116513   
H410     H      0.001680000000     0.552050000000     0.602100000000     0.116825   
H411     H      0.983270000000     0.497570000000     0.619270000000     0.0331481  
H412     H      0.921540000000     0.006960000000     0.613280000000     0.0396035  
H413     H      0.153870000000     0.882570000000     0.809630000000     0.115045   
H414     H      0.179280000000     0.960680000000     0.788630000000     0.122579   
H415     H      0.086510000000     0.933040000000     0.824530000000     0.061226   
H416     H      0.142070000000     0.929390000000     0.853010000000     0.0451327  
H417     H      0.149510000000     0.124770000000     0.685280000000     0.10987    
H418     H      0.163120000000     0.696490000000     0.707030000000     0.11742    
H419     H      0.092060000000     0.672290000000     0.686920000000     0.0327113  
H420     H      0.080520000000     0.662360000000     0.245550000000     0.0538157  
H421     H      0.847300000000     0.906360000000     0.509420000000     0.121034   
H422     H      0.946010000000     0.896570000000     0.551260000000     0.112822   
H423     H      0.405100000000     0.962400000000     0.547680000000     0.0469553  
H424     H      0.388850000000     0.929370000000     0.585060000000     0.0297686  
H425     H      0.995180000000     0.073440000000     0.910420000000     0.118214   
H426     H      0.118830000000     0.023310000000     0.425770000000     0.129298   
H427     H      0.089090000000     0.075290000000     0.940930000000     0.0339176  
H428     H      0.041610000000     0.055710000000     0.970890000000     0.0308925  
H429     H      0.115140000000     0.849270000000     0.398790000000     0.112934   
H430     H      0.999840000000     0.828150000000     0.324930000000     0.130251   
H431     H      0.077330000000     0.842250000000     0.309800000000     0.0397206  
H432     H      0.096610000000     0.808850000000     0.345620000000     0.0399365  
H433     H      0.429690000000     0.732740000000     0.798740000000     0.124564   
H434     H      0.931920000000     0.718610000000     0.698050000000     0.120069   
H435     H      0.912750000000     0.679200000000     0.773830000000     0.0394854  
H436     H      0.855420000000     0.692010000000     0.755860000000     0.0588974  
H437     H      0.181890000000     0.818920000000     0.866200000000     0.109138   
H438     H      0.292360000000     0.770670000000     0.922330000000     0.125645   
H439     H      0.248480000000     0.818010000000     0.934870000000     0.0353262  
H440     H      0.195760000000     0.793620000000     0.436030000000     0.0390616  
H441     H      0.202040000000     0.782860000000     0.641010000000     0.123534   
H442     H      0.252740000000     0.871040000000     0.601780000000     0.120811   
H443     H      0.272470000000     0.816750000000     0.587420000000     0.0346176  
H444     H      0.211750000000     0.810070000000     0.572450000000     0.03644    
H445     H      0.916640000000     0.901190000000     0.734330000000     0.120578   
H446     H      0.929740000000     0.964390000000     0.765900000000     0.12099    
H447     H      0.351050000000     0.944420000000     0.263730000000     0.0352821  
H448     H      0.359200000000     0.921830000000     0.315560000000     0.056679   
H449     H      0.753140000000     0.029410000000     0.169030000000     0.124524   
H450     H      0.204770000000     0.613210000000     0.106290000000     0.115028   
H451     H      0.175200000000     0.069070000000     0.146730000000     0.0443717  
H452     H      0.718470000000     0.078900000000     0.189310000000     0.0431966  
H453     H      0.077310000000     0.999160000000     0.096420000000     0.120956   
H454     H      0.104650000000     0.937070000000     0.994490000000     0.139917   
H455     H      0.037130000000     0.962530000000     0.022270000000     0.038027   
H456     H      0.066240000000     0.001930000000     0.018590000000     0.033224   
H457     H      0.881200000000     0.640150000000     0.949420000000     0.114806   
H458     H      0.857040000000     0.695690000000     0.889000000000     0.124426   
H459     H      0.804680000000     0.672510000000     0.941670000000     0.0496902  
H460     H      0.826280000000     0.699250000000     0.985540000000     0.0566678  
H461     H      0.938540000000     0.848310000000     0.166230000000     0.121032   
H462     H      0.924200000000     0.840980000000     0.069930000000     0.112159   
H463     H      0.991740000000     0.795050000000     0.118240000000     0.0559741  
H464     H      0.931070000000     0.795320000000     0.134770000000     0.0400693  
H465     H      0.263310000000     0.055260000000     0.866280000000     0.124742   
H466     H      0.338200000000     0.604710000000     0.831170000000     0.116181   
H467     H      0.322950000000     0.595630000000     0.928910000000     0.0489187  
H468     H      0.354060000000     0.568550000000     0.891310000000     0.0379257  
H469     H      0.107220000000     0.695780000000     0.004570000000     0.121089   
H470     H      0.128440000000     0.621050000000     0.982650000000     0.111857   
H471     H      0.054440000000     0.641410000000     0.000340000000     0.0335565  
H472     H      0.048750000000     0.653140000000     0.941680000000     0.0501727  
H473     H      0.917100000000     0.010310000000     0.192130000000     0.116514   
H474     H      0.001680000000     0.552050000000     0.102100000000     0.11681    
H475     H      0.983270000000     0.497570000000     0.119270000000     0.0331465  
H476     H      0.921540000000     0.006960000000     0.113280000000     0.0395952  
H477     H      0.153870000000     0.882570000000     0.309620000000     0.115054   
H478     H      0.179280000000     0.960680000000     0.288630000000     0.12258    
H479     H      0.086510000000     0.933040000000     0.324530000000     0.0612282  
H480     H      0.142070000000     0.929390000000     0.353010000000     0.045129   
H481     H      0.149510000000     0.124770000000     0.185280000000     0.109866   
H482     H      0.163120000000     0.696490000000     0.207030000000     0.117415   
H483     H      0.092060000000     0.672290000000     0.186920000000     0.0327033  
H484     H      0.080520000000     0.662360000000     0.745550000000     0.0538159  
H485     H      0.847300000000     0.906360000000     0.009420000000     0.120983   
H486     H      0.946010000000     0.896560000000     0.051260000000     0.112745   
H487     H      0.405100000000     0.962400000000     0.047680000000     0.0469369  
H488     H      0.388850000000     0.929370000000     0.085060000000     0.0297634  
H489     H      0.995180000000     0.073440000000     0.410420000000     0.118197   
H490     H      0.118830000000     0.023310000000     0.925770000000     0.129322   
H491     H      0.089090000000     0.075290000000     0.440930000000     0.0338971  
H492     H      0.041610000000     0.055710000000     0.470890000000     0.0308387  
H493     H      0.115140000000     0.849270000000     0.898790000000     0.112946   
H494     H      0.999840000000     0.828150000000     0.824930000000     0.130228   
H495     H      0.077330000000     0.842250000000     0.809800000000     0.039725   
H496     H      0.096610000000     0.808850000000     0.845620000000     0.0399376  
H497     H      0.429690000000     0.732740000000     0.298730000000     0.124594   
H498     H      0.931920000000     0.718610000000     0.198050000000     0.120068   
H499     H      0.912750000000     0.679200000000     0.273830000000     0.0394762  
H500     H      0.855420000000     0.692010000000     0.255860000000     0.0588891  
H501     H      0.181890000000     0.818920000000     0.366200000000     0.109127   
H502     H      0.292360000000     0.770670000000     0.422330000000     0.12563    
H503     H      0.248480000000     0.818010000000     0.434870000000     0.0352987  
H504     H      0.195760000000     0.793620000000     0.936030000000     0.0390873  
H505     H      0.202040000000     0.782860000000     0.141010000000     0.123523   
H506     H      0.252740000000     0.871040000000     0.101780000000     0.120797   
H507     H      0.272470000000     0.816750000000     0.087420000000     0.0345919  
H508     H      0.211750000000     0.810070000000     0.072450000000     0.0364028  
H509     H      0.916640000000     0.901190000000     0.234330000000     0.120579   
H510     H      0.929740000000     0.964390000000     0.265910000000     0.120994   
H511     H      0.351050000000     0.944420000000     0.763730000000     0.0352786  
H512     H      0.359200000000     0.921830000000     0.815560000000     0.0566875  
N1       N      0.229620000000     0.100060000000     0.624900000000    -0.205887   
N2       N      0.738280000000     0.542530000000     0.642200000000    -0.202827   
N3       N      0.609570000000     0.460280000000     0.508770000000    -0.206765   
N4       N      0.576040000000     0.476520000000     0.579830000000    -0.209005   
N5       N      0.363110000000     0.200830000000     0.423220000000    -0.206933   
N6       N      0.364960000000     0.155080000000     0.473560000000    -0.204857   
N7       N      0.444580000000     0.319880000000     0.573760000000    -0.205363   
N8       N      0.466800000000     0.339450000000     0.647390000000    -0.210844   
N9       N      0.815410000000     0.106010000000     0.358820000000    -0.210646   
N10      N      0.781720000000     0.559300000000     0.396410000000    -0.204567   
N11      N      0.616930000000     0.140530000000     0.462480000000    -0.210119   
N12      N      0.577500000000     0.189360000000     0.485880000000    -0.204986   
N13      N      0.467360000000     0.047860000000     0.612940000000    -0.205779   
N14      N      0.450020000000     0.515280000000     0.678270000000    -0.207666   
N15      N      0.643400000000     0.459950000000     0.795470000000    -0.201226   
N16      N      0.635080000000     0.401300000000     0.793670000000    -0.208394   
N17      N      0.648210000000     0.180930000000     0.231210000000    -0.208695   
N18      N      0.621990000000     0.627960000000     0.708180000000    -0.206332   
N19      N      0.433810000000     0.416060000000     0.531550000000    -0.210958   
N20      N      0.852680000000     0.429750000000     0.523000000000    -0.205038   
N21      N      0.582450000000     0.524460000000     0.429230000000    -0.207942   
N22      N      0.528910000000     0.565760000000     0.901700000000    -0.206372   
N23      N      0.524300000000     0.320150000000     0.348850000000    -0.204541   
N24      N      0.585650000000     0.354060000000     0.378920000000    -0.208011   
N25      N      0.410080000000     0.199410000000     0.708300000000    -0.206246   
N26      N      0.900960000000     0.230280000000     0.777060000000    -0.209458   
N27      N      0.756940000000     0.268960000000     0.413740000000    -0.207881   
N28      N      0.716160000000     0.310870000000     0.871480000000    -0.205171   
N29      N      0.725810000000     0.354150000000     0.607360000000    -0.205749   
N30      N      0.728820000000     0.300330000000     0.640670000000    -0.20558    
N31      N      0.418720000000     0.448270000000     0.291300000000    -0.20743    
N32      N      0.887470000000     0.400240000000     0.755710000000    -0.208169   
N33      N      0.229620000000     0.100060000000     0.124900000000    -0.205888   
N34      N      0.738280000000     0.542530000000     0.142200000000    -0.202829   
N35      N      0.609570000000     0.460280000000     0.008770000000    -0.206847   
N36      N      0.576040000000     0.476520000000     0.079820000000    -0.20895    
N37      N      0.363110000000     0.200830000000     0.923220000000    -0.206953   
N38      N      0.364960000000     0.155080000000     0.973560000000    -0.204776   
N39      N      0.444580000000     0.319880000000     0.073760000000    -0.205337   
N40      N      0.466800000000     0.339450000000     0.147390000000    -0.210844   
N41      N      0.815410000000     0.106010000000     0.858820000000    -0.210665   
N42      N      0.781720000000     0.559300000000     0.896410000000    -0.204554   
N43      N      0.616930000000     0.140530000000     0.962490000000    -0.210115   
N44      N      0.577500000000     0.189360000000     0.985880000000    -0.2049     
N45      N      0.467360000000     0.047860000000     0.112940000000    -0.205784   
N46      N      0.450020000000     0.515280000000     0.178270000000    -0.207667   
N47      N      0.643400000000     0.459950000000     0.295470000000    -0.201228   
N48      N      0.635080000000     0.401300000000     0.293670000000    -0.208409   
N49      N      0.648210000000     0.180930000000     0.731210000000    -0.208695   
N50      N      0.621990000000     0.627960000000     0.208180000000    -0.206333   
N51      N      0.433810000000     0.416060000000     0.031550000000    -0.211048   
N52      N      0.852680000000     0.429750000000     0.022990000000    -0.205029   
N53      N      0.582450000000     0.524460000000     0.929240000000    -0.207925   
N54      N      0.528910000000     0.565760000000     0.401700000000    -0.206379   
N55      N      0.524300000000     0.320150000000     0.848850000000    -0.204501   
N56      N      0.585650000000     0.354060000000     0.878920000000    -0.208008   
N57      N      0.410080000000     0.199410000000     0.208300000000    -0.206264   
N58      N      0.900970000000     0.230280000000     0.277050000000    -0.209439   
N59      N      0.756940000000     0.268960000000     0.913740000000    -0.207865   
N60      N      0.716160000000     0.310870000000     0.371480000000    -0.205151   
N61      N      0.725810000000     0.354150000000     0.107350000000    -0.205753   
N62      N      0.728820000000     0.300340000000     0.140670000000    -0.205552   
N63      N      0.418720000000     0.448270000000     0.791300000000    -0.207446   
N64      N      0.887470000000     0.400240000000     0.255710000000    -0.20817    
N65      N      0.229620000000     0.600060000000     0.624900000000    -0.205885   
N66      N      0.738280000000     0.042530000000     0.642200000000    -0.20285    
N67      N      0.609570000000     0.960280000000     0.508770000000    -0.206735   
N68      N      0.576040000000     0.976520000000     0.579830000000    -0.208991   
N69      N      0.363110000000     0.700830000000     0.423220000000    -0.206934   
N70      N      0.364960000000     0.655080000000     0.473560000000    -0.204889   
N71      N      0.444580000000     0.819880000000     0.573760000000    -0.205364   
N72      N      0.466800000000     0.839450000000     0.647390000000    -0.210843   
N73      N      0.815410000000     0.606000000000     0.358820000000    -0.210629   
N74      N      0.781720000000     0.059300000000     0.396410000000    -0.20456    
N75      N      0.616930000000     0.640530000000     0.462480000000    -0.210109   
N76      N      0.577500000000     0.689360000000     0.485880000000    -0.204984   
N77      N      0.467360000000     0.547860000000     0.612940000000    -0.205761   
N78      N      0.450020000000     0.015280000000     0.678270000000    -0.207656   
N79      N      0.643400000000     0.959950000000     0.795470000000    -0.201223   
N80      N      0.635080000000     0.901300000000     0.793670000000    -0.208404   
N81      N      0.648210000000     0.680930000000     0.231210000000    -0.208694   
N82      N      0.621990000000     0.127960000000     0.708180000000    -0.206353   
N83      N      0.433810000000     0.916060000000     0.531550000000    -0.210872   
N84      N      0.852680000000     0.929760000000     0.523000000000    -0.205003   
N85      N      0.582440000000     0.024460000000     0.429240000000    -0.207887   
N86      N      0.528910000000     0.065760000000     0.901700000000    -0.20638    
N87      N      0.524300000000     0.820150000000     0.348850000000    -0.204527   
N88      N      0.585650000000     0.854060000000     0.378920000000    -0.208011   
N89      N      0.410080000000     0.699410000000     0.708300000000    -0.206262   
N90      N      0.900960000000     0.730280000000     0.777060000000    -0.209425   
N91      N      0.756940000000     0.768960000000     0.413740000000    -0.207868   
N92      N      0.716160000000     0.810870000000     0.871480000000    -0.205171   
N93      N      0.725810000000     0.854150000000     0.607360000000    -0.205714   
N94      N      0.728820000000     0.800340000000     0.640670000000    -0.205544   
N95      N      0.418720000000     0.948270000000     0.291300000000    -0.207425   
N96      N      0.887470000000     0.900240000000     0.755710000000    -0.208172   
N97      N      0.229620000000     0.600060000000     0.124900000000    -0.205901   
N98      N      0.738280000000     0.042530000000     0.142200000000    -0.202853   
N99      N      0.609570000000     0.960280000000     0.008770000000    -0.206821   
N100     N      0.576040000000     0.976520000000     0.079820000000    -0.208955   
N101     N      0.363110000000     0.700830000000     0.923220000000    -0.206953   
N102     N      0.364960000000     0.655080000000     0.973570000000    -0.204826   
N103     N      0.444580000000     0.819880000000     0.073760000000    -0.205338   
N104     N      0.466800000000     0.839450000000     0.147390000000    -0.210844   
N105     N      0.815410000000     0.606010000000     0.858820000000    -0.210668   
N106     N      0.781720000000     0.059300000000     0.896410000000    -0.204552   
N107     N      0.616930000000     0.640530000000     0.962480000000    -0.210124   
N108     N      0.577500000000     0.689360000000     0.985880000000    -0.204898   
N109     N      0.467360000000     0.547860000000     0.112940000000    -0.205766   
N110     N      0.450020000000     0.015280000000     0.178270000000    -0.207655   
N111     N      0.643400000000     0.959950000000     0.295470000000    -0.201225   
N112     N      0.635080000000     0.901300000000     0.293670000000    -0.208439   
N113     N      0.648210000000     0.680930000000     0.731210000000    -0.208694   
N114     N      0.621990000000     0.127960000000     0.208180000000    -0.206354   
N115     N      0.433810000000     0.916060000000     0.031550000000    -0.21101    
N116     N      0.852670000000     0.929760000000     0.023000000000    -0.205011   
N117     N      0.582450000000     0.024460000000     0.929240000000    -0.20791    
N118     N      0.528910000000     0.065760000000     0.401700000000    -0.206406   
N119     N      0.524300000000     0.820150000000     0.848860000000    -0.204532   
N120     N      0.585650000000     0.854060000000     0.878920000000    -0.208008   
N121     N      0.410080000000     0.699410000000     0.208300000000    -0.206293   
N122     N      0.900960000000     0.730280000000     0.277050000000    -0.209441   
N123     N      0.756940000000     0.768960000000     0.913740000000    -0.207864   
N124     N      0.716160000000     0.810870000000     0.371480000000    -0.20515    
N125     N      0.725810000000     0.854150000000     0.107360000000    -0.205721   
N126     N      0.728820000000     0.800340000000     0.140670000000    -0.205546   
N127     N      0.418720000000     0.948270000000     0.791310000000    -0.207455   
N128     N      0.887470000000     0.900240000000     0.255710000000    -0.208174   
N129     N      0.729620000000     0.100060000000     0.624900000000    -0.205903   
N130     N      0.238280000000     0.542530000000     0.642200000000    -0.202829   
N131     N      0.109570000000     0.460280000000     0.508770000000    -0.206744   
N132     N      0.076040000000     0.476520000000     0.579830000000    -0.208991   
N133     N      0.863110000000     0.200830000000     0.423220000000    -0.206936   
N134     N      0.864960000000     0.155080000000     0.473560000000    -0.204854   
N135     N      0.944580000000     0.319880000000     0.573760000000    -0.205363   
N136     N      0.966800000000     0.339450000000     0.647390000000    -0.210842   
N137     N      0.315410000000     0.106010000000     0.358820000000    -0.210648   
N138     N      0.281720000000     0.559300000000     0.396410000000    -0.204569   
N139     N      0.116930000000     0.140530000000     0.462480000000    -0.210119   
N140     N      0.077500000000     0.189360000000     0.485880000000    -0.204986   
N141     N      0.967360000000     0.047860000000     0.612940000000    -0.205801   
N142     N      0.950020000000     0.515280000000     0.678270000000    -0.207646   
N143     N      0.143400000000     0.459950000000     0.795470000000    -0.201203   
N144     N      0.135080000000     0.401300000000     0.793670000000    -0.208393   
N145     N      0.148210000000     0.180930000000     0.231210000000    -0.20869    
N146     N      0.121990000000     0.627960000000     0.708180000000    -0.206333   
N147     N      0.933810000000     0.416060000000     0.531550000000    -0.210958   
N148     N      0.352680000000     0.429750000000     0.523000000000    -0.205038   
N149     N      0.082450000000     0.524460000000     0.429230000000    -0.207942   
N150     N      0.028910000000     0.565760000000     0.901700000000    -0.206382   
N151     N      0.024300000000     0.320150000000     0.348850000000    -0.204543   
N152     N      0.085650000000     0.354060000000     0.378920000000    -0.208011   
N153     N      0.910080000000     0.199410000000     0.708300000000    -0.206281   
N154     N      0.400970000000     0.230280000000     0.777060000000    -0.20944    
N155     N      0.256940000000     0.268960000000     0.413740000000    -0.207869   
N156     N      0.216160000000     0.310870000000     0.871480000000    -0.205171   
N157     N      0.225810000000     0.354150000000     0.607360000000    -0.205751   
N158     N      0.228820000000     0.300340000000     0.640670000000    -0.205546   
N159     N      0.918720000000     0.448270000000     0.291300000000    -0.207429   
N160     N      0.387470000000     0.400240000000     0.755710000000    -0.208169   
N161     N      0.729620000000     0.100060000000     0.124900000000    -0.205905   
N162     N      0.238280000000     0.542530000000     0.142200000000    -0.202831   
N163     N      0.109570000000     0.460280000000     0.008770000000    -0.206825   
N164     N      0.076040000000     0.476520000000     0.079820000000    -0.208936   
N165     N      0.863110000000     0.200830000000     0.923220000000    -0.206955   
N166     N      0.864960000000     0.155080000000     0.973560000000    -0.204773   
N167     N      0.944580000000     0.319880000000     0.073760000000    -0.205337   
N168     N      0.966800000000     0.339450000000     0.147390000000    -0.210842   
N169     N      0.315410000000     0.106010000000     0.858820000000    -0.210667   
N170     N      0.281720000000     0.559300000000     0.896410000000    -0.204565   
N171     N      0.116930000000     0.140530000000     0.962480000000    -0.210134   
N172     N      0.077500000000     0.189360000000     0.985880000000    -0.204901   
N173     N      0.967360000000     0.047860000000     0.112940000000    -0.205805   
N174     N      0.950020000000     0.515280000000     0.178270000000    -0.207644   
N175     N      0.143400000000     0.459950000000     0.295470000000    -0.201205   
N176     N      0.135080000000     0.401300000000     0.293670000000    -0.208408   
N177     N      0.148210000000     0.180930000000     0.731210000000    -0.20869    
N178     N      0.121990000000     0.627960000000     0.208180000000    -0.206333   
N179     N      0.933810000000     0.416060000000     0.031550000000    -0.211047   
N180     N      0.352680000000     0.429750000000     0.022990000000    -0.20505    
N181     N      0.082450000000     0.524460000000     0.929240000000    -0.207903   
N182     N      0.028910000000     0.565760000000     0.401700000000    -0.20638    
N183     N      0.024300000000     0.320150000000     0.848850000000    -0.204502   
N184     N      0.085650000000     0.354060000000     0.878920000000    -0.208009   
N185     N      0.910080000000     0.199410000000     0.208300000000    -0.206264   
N186     N      0.400970000000     0.230280000000     0.277050000000    -0.209422   
N187     N      0.256940000000     0.268960000000     0.913740000000    -0.207864   
N188     N      0.216160000000     0.310870000000     0.371480000000    -0.20515    
N189     N      0.225810000000     0.354150000000     0.107350000000    -0.205752   
N190     N      0.228820000000     0.300330000000     0.140670000000    -0.205586   
N191     N      0.918720000000     0.448270000000     0.791300000000    -0.207446   
N192     N      0.387470000000     0.400240000000     0.255710000000    -0.20817    
N193     N      0.729620000000     0.600060000000     0.624900000000    -0.205901   
N194     N      0.238280000000     0.042530000000     0.642200000000    -0.202853   
N195     N      0.109570000000     0.960280000000     0.508770000000    -0.206735   
N196     N      0.076040000000     0.976520000000     0.579830000000    -0.208987   
N197     N      0.863110000000     0.700830000000     0.423220000000    -0.206926   
N198     N      0.864960000000     0.655080000000     0.473570000000    -0.204907   
N199     N      0.944580000000     0.819880000000     0.573760000000    -0.205363   
N200     N      0.966800000000     0.839450000000     0.647390000000    -0.210841   
N201     N      0.315410000000     0.606010000000     0.358820000000    -0.210658   
N202     N      0.281720000000     0.059300000000     0.396410000000    -0.204567   
N203     N      0.116930000000     0.640530000000     0.462480000000    -0.210109   
N204     N      0.077500000000     0.689360000000     0.485880000000    -0.204984   
N205     N      0.967360000000     0.547860000000     0.612940000000    -0.205783   
N206     N      0.950020000000     0.015280000000     0.678270000000    -0.207657   
N207     N      0.143400000000     0.959950000000     0.795470000000    -0.201201   
N208     N      0.135080000000     0.901300000000     0.793670000000    -0.208413   
N209     N      0.148210000000     0.680930000000     0.231210000000    -0.208706   
N210     N      0.121990000000     0.127960000000     0.708180000000    -0.206354   
N211     N      0.933810000000     0.916060000000     0.531550000000    -0.210932   
N212     N      0.352670000000     0.929760000000     0.523000000000    -0.205052   
N213     N      0.082450000000     0.024460000000     0.429240000000    -0.207901   
N214     N      0.028910000000     0.065760000000     0.901700000000    -0.206381   
N215     N      0.024300000000     0.820150000000     0.348850000000    -0.204529   
N216     N      0.085650000000     0.854060000000     0.378920000000    -0.208012   
N217     N      0.910080000000     0.699410000000     0.708300000000    -0.206265   
N218     N      0.400960000000     0.730280000000     0.777060000000    -0.209402   
N219     N      0.256930000000     0.768960000000     0.413740000000    -0.207848   
N220     N      0.216150000000     0.810870000000     0.871480000000    -0.20518    
N221     N      0.225810000000     0.854150000000     0.607360000000    -0.205714   
N222     N      0.228820000000     0.800340000000     0.640670000000    -0.205544   
N223     N      0.918720000000     0.948270000000     0.291310000000    -0.207479   
N224     N      0.387470000000     0.900240000000     0.755710000000    -0.208172   
N225     N      0.729620000000     0.600060000000     0.124900000000    -0.205903   
N226     N      0.238280000000     0.042530000000     0.142200000000    -0.202855   
N227     N      0.109570000000     0.960280000000     0.008770000000    -0.206818   
N228     N      0.076040000000     0.976520000000     0.079820000000    -0.208932   
N229     N      0.863110000000     0.700830000000     0.923220000000    -0.206954   
N230     N      0.864960000000     0.655080000000     0.973570000000    -0.204823   
N231     N      0.944580000000     0.819880000000     0.073760000000    -0.205338   
N232     N      0.966800000000     0.839450000000     0.147390000000    -0.210842   
N233     N      0.315410000000     0.606000000000     0.858820000000    -0.210615   
N234     N      0.281720000000     0.059300000000     0.896410000000    -0.204559   
N235     N      0.116930000000     0.640530000000     0.962480000000    -0.210124   
N236     N      0.077500000000     0.689360000000     0.985880000000    -0.204899   
N237     N      0.967360000000     0.547860000000     0.112940000000    -0.205787   
N238     N      0.950020000000     0.015280000000     0.178270000000    -0.207656   
N239     N      0.143400000000     0.959950000000     0.295470000000    -0.201201   
N240     N      0.135080000000     0.901300000000     0.293670000000    -0.208408   
N241     N      0.148210000000     0.680930000000     0.731210000000    -0.208706   
N242     N      0.121990000000     0.127960000000     0.208180000000    -0.206355   
N243     N      0.933810000000     0.916060000000     0.031550000000    -0.210949   
N244     N      0.352680000000     0.929760000000     0.023000000000    -0.204992   
N245     N      0.082450000000     0.024460000000     0.929240000000    -0.207889   
N246     N      0.028910000000     0.065760000000     0.401700000000    -0.206382   
N247     N      0.024300000000     0.820150000000     0.848860000000    -0.204547   
N248     N      0.085650000000     0.854060000000     0.878920000000    -0.208008   
N249     N      0.910080000000     0.699410000000     0.208300000000    -0.206269   
N250     N      0.400960000000     0.730280000000     0.277060000000    -0.20944    
N251     N      0.256930000000     0.768960000000     0.913740000000    -0.207844   
N252     N      0.216150000000     0.810870000000     0.371480000000    -0.20516    
N253     N      0.225810000000     0.854150000000     0.107360000000    -0.20572    
N254     N      0.228820000000     0.800340000000     0.140670000000    -0.205546   
N255     N      0.918720000000     0.948270000000     0.791300000000    -0.207441   
N256     N      0.387470000000     0.900240000000     0.255710000000    -0.208173   
O1       O      0.878860000000     0.283030000000     0.791490000000    -0.238408   
O2       O      0.825430000000     0.369470000000     0.780950000000    -0.24792    
O3       O      0.788700000000     0.302880000000     0.839960000000    -0.240779   
O4       O      0.748220000000     0.286850000000     0.713260000000    -0.237442   
O5       O      0.788410000000     0.324820000000     0.680560000000    -0.249286   
O6       O      0.734150000000     0.322820000000     0.797890000000    -0.244212   
O7       O      0.836890000000     0.255010000000     0.744990000000    -0.242701   
O8       O      0.873120000000     0.347680000000     0.733040000000    -0.256107   
O9       O      0.571280000000     0.400850000000     0.419120000000    -0.248596   
O10      O      0.442660000000     0.446320000000     0.466620000000    -0.244169   
O11      O      0.434120000000     0.425910000000     0.361180000000    -0.238769   
O12      O      0.576370000000     0.470290000000     0.410500000000    -0.253558   
O13      O      0.513090000000     0.496210000000     0.427490000000    -0.250123   
O14      O      0.483220000000     0.460740000000     0.333620000000    -0.234213   
O15      O      0.524040000000     0.388530000000     0.364690000000    -0.247364   
O16      O      0.489710000000     0.406020000000     0.478290000000    -0.246068   
O17      O      0.526380000000     0.529490000000     0.691660000000    -0.250789   
O18      O      0.567930000000     0.602990000000     0.754230000000    -0.245816   
O19      O      0.573050000000     0.486840000000     0.791520000000    -0.233385   
O20      O      0.508830000000     0.564250000000     0.826710000000    -0.238662   
O21      O      0.580040000000     0.552500000000     0.844940000000    -0.245558   
O22      O      0.634380000000     0.511550000000     0.766420000000    -0.240564   
O23      O      0.479520000000     0.526110000000     0.748590000000    -0.24348    
O24      O      0.616660000000     0.572570000000     0.717660000000    -0.251299   
O25      O      0.633690000000     0.176090000000     0.404340000000    -0.236903   
O26      O      0.776630000000     0.149570000000     0.327240000000    -0.246576   
O27      O      0.697900000000     0.235700000000     0.387820000000    -0.246536   
O28      O      0.702800000000     0.196510000000     0.283310000000    -0.241178   
O29      O      0.651410000000     0.160840000000     0.303790000000    -0.242551   
O30      O      0.767570000000     0.216230000000     0.390730000000    -0.265496   
O31      O      0.685360000000     0.139990000000     0.423130000000    -0.234358   
O32      O      0.753240000000     0.131600000000     0.392120000000    -0.235167   
O33      O      0.466500000000     0.295120000000     0.389320000000    -0.234767   
O34      O      0.552050000000     0.242370000000     0.487880000000    -0.238091   
O35      O      0.423220000000     0.234950000000     0.404500000000    -0.243773   
O36      O      0.440370000000     0.309750000000     0.497550000000    -0.245855   
O37      O      0.477530000000     0.275230000000     0.539300000000    -0.243002   
O38      O      0.407560000000     0.228320000000     0.475470000000    -0.243144   
O39      O      0.537250000000     0.290780000000     0.413950000000    -0.242868   
O40      O      0.508500000000     0.206510000000     0.454650000000    -0.249712   
O41      O      0.580310000000     0.420580000000     0.586190000000    -0.247113   
O42      O      0.598570000000     0.419020000000     0.729110000000    -0.232671   
O43      O      0.649510000000     0.346350000000     0.629480000000    -0.238127   
O44      O      0.513750000000     0.379640000000     0.676060000000    -0.256757   
O45      O      0.543910000000     0.346340000000     0.627580000000    -0.240483   
O46      O      0.677050000000     0.395610000000     0.628750000000    -0.244688   
O47      O      0.589120000000     0.449830000000     0.646510000000    -0.236524   
O48      O      0.630070000000     0.371010000000     0.728770000000    -0.24768    
O49      O      0.660990000000     0.501690000000     0.525040000000    -0.251239   
O50      O      0.822900000000     0.481200000000     0.534380000000    -0.240317   
O51      O      0.724200000000     0.544470000000     0.565550000000    -0.240612   
O52      O      0.790650000000     0.544610000000     0.471070000000    -0.244684   
O53      O      0.737420000000     0.520490000000     0.432000000000    -0.253426   
O54      O      0.759930000000     0.502260000000     0.593000000000    -0.242679   
O55      O      0.687630000000     0.458260000000     0.492240000000    -0.23693    
O56      O      0.780590000000     0.446150000000     0.498090000000    -0.238872   
O57      O      0.372700000000     0.151950000000     0.687800000000    -0.250258   
O58      O      0.394400000000     0.069660000000     0.625110000000    -0.238578   
O59      O      0.349840000000     0.163880000000     0.548880000000    -0.23507    
O60      O      0.287640000000     0.132160000000     0.596200000000    -0.243743   
O61      O      0.307270000000     0.094080000000     0.643190000000    -0.236077   
O62      O      0.389190000000     0.120850000000     0.529980000000    -0.245314   
O63      O      0.412800000000     0.177390000000     0.637190000000    -0.245214   
O64      O      0.449170000000     0.101710000000     0.601230000000    -0.246232   
O65      O      0.878860000000     0.283030000000     0.291490000000    -0.238401   
O66      O      0.825430000000     0.369470000000     0.280950000000    -0.247925   
O67      O      0.788700000000     0.302880000000     0.339960000000    -0.240752   
O68      O      0.748220000000     0.286850000000     0.213260000000    -0.237443   
O69      O      0.788410000000     0.324820000000     0.180560000000    -0.249287   
O70      O      0.734150000000     0.322820000000     0.297880000000    -0.244124   
O71      O      0.836890000000     0.255010000000     0.244990000000    -0.242691   
O72      O      0.873120000000     0.347680000000     0.233040000000    -0.256107   
O73      O      0.571280000000     0.400850000000     0.919120000000    -0.248574   
O74      O      0.442660000000     0.446320000000     0.966620000000    -0.244134   
O75      O      0.434120000000     0.425910000000     0.861170000000    -0.238837   
O76      O      0.576370000000     0.470290000000     0.910500000000    -0.253542   
O77      O      0.513090000000     0.496210000000     0.927490000000    -0.250087   
O78      O      0.483220000000     0.460740000000     0.833620000000    -0.234257   
O79      O      0.524040000000     0.388530000000     0.864690000000    -0.247368   
O80      O      0.489710000000     0.406020000000     0.978290000000    -0.246035   
O81      O      0.526380000000     0.529490000000     0.191660000000    -0.25079    
O82      O      0.567930000000     0.602990000000     0.254230000000    -0.245816   
O83      O      0.573050000000     0.486840000000     0.291520000000    -0.233384   
O84      O      0.508830000000     0.564250000000     0.326710000000    -0.238663   
O85      O      0.580040000000     0.552500000000     0.344940000000    -0.245553   
O86      O      0.634380000000     0.511550000000     0.266420000000    -0.240563   
O87      O      0.479520000000     0.526110000000     0.248590000000    -0.24348    
O88      O      0.616660000000     0.572570000000     0.217660000000    -0.251299   
O89      O      0.633680000000     0.176090000000     0.904340000000    -0.236854   
O90      O      0.776630000000     0.149570000000     0.827250000000    -0.246656   
O91      O      0.697900000000     0.235700000000     0.887820000000    -0.24654    
O92      O      0.702800000000     0.196510000000     0.783310000000    -0.24118    
O93      O      0.651410000000     0.160840000000     0.803790000000    -0.242554   
O94      O      0.767570000000     0.216230000000     0.890740000000    -0.265504   
O95      O      0.685360000000     0.139990000000     0.923130000000    -0.234319   
O96      O      0.753240000000     0.131600000000     0.892120000000    -0.235181   
O97      O      0.466500000000     0.295120000000     0.889320000000    -0.234757   
O98      O      0.552050000000     0.242370000000     0.987880000000    -0.238023   
O99      O      0.423220000000     0.234950000000     0.904500000000    -0.243802   
O100     O      0.440370000000     0.309750000000     0.997550000000    -0.24567    
O101     O      0.477530000000     0.275230000000     0.039300000000    -0.24304    
O102     O      0.407560000000     0.228320000000     0.975460000000    -0.243184   
O103     O      0.537250000000     0.290780000000     0.913950000000    -0.242853   
O104     O      0.508500000000     0.206510000000     0.954650000000    -0.249689   
O105     O      0.580310000000     0.420580000000     0.086190000000    -0.247128   
O106     O      0.598570000000     0.419020000000     0.229100000000    -0.23263    
O107     O      0.649510000000     0.346350000000     0.129480000000    -0.238131   
O108     O      0.513750000000     0.379640000000     0.176060000000    -0.256758   
O109     O      0.543910000000     0.346340000000     0.127580000000    -0.240501   
O110     O      0.677050000000     0.395610000000     0.128750000000    -0.244692   
O111     O      0.589120000000     0.449830000000     0.146510000000    -0.23651    
O112     O      0.630070000000     0.371010000000     0.228770000000    -0.247662   
O113     O      0.660990000000     0.501690000000     0.025040000000    -0.251227   
O114     O      0.822900000000     0.481200000000     0.034380000000    -0.240305   
O115     O      0.724200000000     0.544470000000     0.065550000000    -0.240646   
O116     O      0.790650000000     0.544610000000     0.971070000000    -0.244582   
O117     O      0.737420000000     0.520490000000     0.932000000000    -0.253369   
O118     O      0.759930000000     0.502260000000     0.093000000000    -0.242688   
O119     O      0.687630000000     0.458260000000     0.992240000000    -0.23673    
O120     O      0.780590000000     0.446150000000     0.998090000000    -0.238653   
O121     O      0.372700000000     0.151950000000     0.187800000000    -0.250258   
O122     O      0.394400000000     0.069660000000     0.125110000000    -0.238584   
O123     O      0.349840000000     0.163880000000     0.048870000000    -0.235151   
O124     O      0.287640000000     0.132160000000     0.096200000000    -0.243769   
O125     O      0.307270000000     0.094080000000     0.143190000000    -0.236078   
O126     O      0.389190000000     0.120850000000     0.029980000000    -0.245363   
O127     O      0.412800000000     0.177390000000     0.137190000000    -0.245233   
O128     O      0.449170000000     0.101710000000     0.101230000000    -0.246249   
O129     O      0.878860000000     0.783030000000     0.791490000000    -0.238405   
O130     O      0.825430000000     0.869470000000     0.780950000000    -0.247919   
O131     O      0.788700000000     0.802880000000     0.839960000000    -0.240779   
O132     O      0.748220000000     0.786850000000     0.713260000000    -0.237442   
O133     O      0.788410000000     0.824820000000     0.680560000000    -0.249283   
O134     O      0.734150000000     0.822820000000     0.797890000000    -0.24421    
O135     O      0.836890000000     0.755010000000     0.744990000000    -0.2427     
O136     O      0.873120000000     0.847680000000     0.733040000000    -0.256109   
O137     O      0.571280000000     0.900850000000     0.419120000000    -0.248598   
O138     O      0.442660000000     0.946330000000     0.466620000000    -0.244057   
O139     O      0.434120000000     0.925910000000     0.361180000000    -0.238835   
O140     O      0.576370000000     0.970290000000     0.410500000000    -0.253543   
O141     O      0.513090000000     0.996210000000     0.427490000000    -0.250203   
O142     O      0.483220000000     0.960740000000     0.333620000000    -0.23417    
O143     O      0.524040000000     0.888530000000     0.364690000000    -0.247369   
O144     O      0.489710000000     0.906020000000     0.478290000000    -0.246026   
O145     O      0.526380000000     0.029490000000     0.691660000000    -0.25081    
O146     O      0.567930000000     0.102990000000     0.754230000000    -0.245822   
O147     O      0.573050000000     0.986840000000     0.791520000000    -0.233384   
O148     O      0.508830000000     0.064250000000     0.826710000000    -0.238662   
O149     O      0.580040000000     0.052500000000     0.844940000000    -0.245555   
O150     O      0.634380000000     0.011550000000     0.766420000000    -0.240537   
O151     O      0.479520000000     0.026110000000     0.748590000000    -0.243489   
O152     O      0.616660000000     0.072570000000     0.717660000000    -0.251299   
O153     O      0.633680000000     0.676090000000     0.404340000000    -0.236869   
O154     O      0.776620000000     0.649570000000     0.327250000000    -0.246632   
O155     O      0.697900000000     0.735700000000     0.387820000000    -0.246547   
O156     O      0.702800000000     0.696510000000     0.283310000000    -0.241179   
O157     O      0.651410000000     0.660840000000     0.303790000000    -0.242549   
O158     O      0.767570000000     0.716230000000     0.390740000000    -0.265514   
O159     O      0.685360000000     0.639990000000     0.423130000000    -0.234352   
O160     O      0.753240000000     0.631600000000     0.392120000000    -0.235158   
O161     O      0.466500000000     0.795120000000     0.389320000000    -0.234849   
O162     O      0.552050000000     0.742370000000     0.487880000000    -0.238085   
O163     O      0.423220000000     0.734950000000     0.404500000000    -0.243758   
O164     O      0.440370000000     0.809750000000     0.497550000000    -0.245874   
O165     O      0.477530000000     0.775230000000     0.539300000000    -0.243006   
O166     O      0.407560000000     0.728320000000     0.475470000000    -0.243129   
O167     O      0.537250000000     0.790780000000     0.413950000000    -0.242841   
O168     O      0.508500000000     0.706510000000     0.454650000000    -0.249687   
O169     O      0.580310000000     0.920580000000     0.586190000000    -0.247115   
O170     O      0.598570000000     0.919020000000     0.729110000000    -0.232692   
O171     O      0.649510000000     0.846350000000     0.629480000000    -0.238081   
O172     O      0.513750000000     0.879640000000     0.676060000000    -0.256753   
O173     O      0.543910000000     0.846340000000     0.627580000000    -0.240483   
O174     O      0.677050000000     0.895620000000     0.628750000000    -0.244558   
O175     O      0.589110000000     0.949830000000     0.646510000000    -0.236542   
O176     O      0.630070000000     0.871010000000     0.728780000000    -0.247725   
O177     O      0.660990000000     0.001690000000     0.525040000000    -0.251205   
O178     O      0.822900000000     0.981200000000     0.534380000000    -0.240356   
O179     O      0.724200000000     0.044470000000     0.565550000000    -0.240649   
O180     O      0.790650000000     0.044610000000     0.471070000000    -0.244676   
O181     O      0.737420000000     0.020490000000     0.432000000000    -0.253415   
O182     O      0.759930000000     0.002260000000     0.593000000000    -0.242577   
O183     O      0.687630000000     0.958260000000     0.492240000000    -0.236926   
O184     O      0.780590000000     0.946150000000     0.498090000000    -0.238966   
O185     O      0.372700000000     0.651950000000     0.687800000000    -0.250258   
O186     O      0.394400000000     0.569660000000     0.625110000000    -0.238575   
O187     O      0.349840000000     0.663880000000     0.548880000000    -0.235108   
O188     O      0.287640000000     0.632160000000     0.596200000000    -0.243743   
O189     O      0.307270000000     0.594080000000     0.643190000000    -0.236076   
O190     O      0.389190000000     0.620860000000     0.529980000000    -0.245432   
O191     O      0.412800000000     0.677390000000     0.637190000000    -0.245213   
O192     O      0.449170000000     0.601710000000     0.601230000000    -0.246227   
O193     O      0.878860000000     0.783030000000     0.291490000000    -0.238412   
O194     O      0.825430000000     0.869470000000     0.280950000000    -0.247924   
O195     O      0.788700000000     0.802880000000     0.339960000000    -0.240749   
O196     O      0.748220000000     0.786850000000     0.213260000000    -0.237443   
O197     O      0.788410000000     0.824820000000     0.180560000000    -0.249285   
O198     O      0.734150000000     0.822820000000     0.297880000000    -0.244123   
O199     O      0.836890000000     0.755010000000     0.244990000000    -0.242703   
O200     O      0.873120000000     0.847680000000     0.233040000000    -0.25611    
O201     O      0.571280000000     0.900850000000     0.919120000000    -0.248575   
O202     O      0.442660000000     0.946330000000     0.966620000000    -0.244032   
O203     O      0.434120000000     0.925910000000     0.861170000000    -0.238859   
O204     O      0.576370000000     0.970290000000     0.910500000000    -0.253539   
O205     O      0.513090000000     0.996210000000     0.927490000000    -0.250091   
O206     O      0.483220000000     0.960740000000     0.833620000000    -0.234277   
O207     O      0.524040000000     0.888530000000     0.864690000000    -0.24737    
O208     O      0.489710000000     0.906020000000     0.978290000000    -0.246001   
O209     O      0.526380000000     0.029490000000     0.191660000000    -0.250811   
O210     O      0.567930000000     0.102990000000     0.254230000000    -0.245821   
O211     O      0.573050000000     0.986840000000     0.291520000000    -0.233382   
O212     O      0.508830000000     0.064250000000     0.326710000000    -0.238691   
O213     O      0.580030000000     0.052500000000     0.344940000000    -0.245645   
O214     O      0.634380000000     0.011550000000     0.266420000000    -0.240536   
O215     O      0.479520000000     0.026110000000     0.248590000000    -0.243487   
O216     O      0.616660000000     0.072570000000     0.217660000000    -0.251299   
O217     O      0.633680000000     0.676090000000     0.904340000000    -0.236868   
O218     O      0.776620000000     0.649570000000     0.827250000000    -0.246653   
O219     O      0.697900000000     0.735700000000     0.887820000000    -0.24654    
O220     O      0.702800000000     0.696510000000     0.783310000000    -0.241179   
O221     O      0.651410000000     0.660840000000     0.803790000000    -0.242551   
O222     O      0.767570000000     0.716230000000     0.890740000000    -0.265506   
O223     O      0.685360000000     0.639990000000     0.923130000000    -0.234335   
O224     O      0.753240000000     0.631600000000     0.892120000000    -0.235171   
O225     O      0.466500000000     0.795120000000     0.889320000000    -0.23486    
O226     O      0.552050000000     0.742370000000     0.987880000000    -0.238017   
O227     O      0.423220000000     0.734950000000     0.904500000000    -0.243788   
O228     O      0.440370000000     0.809750000000     0.997550000000    -0.245688   
O229     O      0.477530000000     0.775230000000     0.039300000000    -0.243044   
O230     O      0.407560000000     0.728320000000     0.975460000000    -0.243168   
O231     O      0.537250000000     0.790780000000     0.913950000000    -0.242842   
O232     O      0.508500000000     0.706510000000     0.954650000000    -0.249665   
O233     O      0.580310000000     0.920580000000     0.086190000000    -0.247134   
O234     O      0.598570000000     0.919020000000     0.229110000000    -0.232758   
O235     O      0.649510000000     0.846350000000     0.129480000000    -0.238095   
O236     O      0.513750000000     0.879640000000     0.176060000000    -0.256753   
O237     O      0.543910000000     0.846340000000     0.127580000000    -0.240501   
O238     O      0.677050000000     0.895620000000     0.128750000000    -0.24457    
O239     O      0.589110000000     0.949830000000     0.146510000000    -0.236529   
O240     O      0.630070000000     0.871010000000     0.228780000000    -0.247648   
O241     O      0.660990000000     0.001690000000     0.025040000000    -0.251196   
O242     O      0.822900000000     0.981200000000     0.034380000000    -0.240359   
O243     O      0.724200000000     0.044470000000     0.065550000000    -0.240684   
O244     O      0.790650000000     0.044610000000     0.971070000000    -0.244576   
O245     O      0.737420000000     0.020490000000     0.932000000000    -0.253359   
O246     O      0.759930000000     0.002260000000     0.093000000000    -0.242584   
O247     O      0.687630000000     0.958260000000     0.992240000000    -0.236724   
O248     O      0.780590000000     0.946160000000     0.998090000000    -0.238798   
O249     O      0.372700000000     0.651950000000     0.187800000000    -0.250294   
O250     O      0.394400000000     0.569660000000     0.125110000000    -0.23858    
O251     O      0.349840000000     0.663880000000     0.048870000000    -0.235208   
O252     O      0.287640000000     0.632160000000     0.096200000000    -0.243795   
O253     O      0.307260000000     0.594080000000     0.143190000000    -0.23614    
O254     O      0.389190000000     0.620860000000     0.029980000000    -0.2455     
O255     O      0.412800000000     0.677390000000     0.137200000000    -0.245324   
O256     O      0.449170000000     0.601710000000     0.101230000000    -0.246244   
O257     O      0.378860000000     0.283030000000     0.791490000000    -0.238369   
O258     O      0.325430000000     0.369470000000     0.780950000000    -0.24792    
O259     O      0.288700000000     0.302880000000     0.839960000000    -0.240779   
O260     O      0.248220000000     0.286850000000     0.713260000000    -0.237441   
O261     O      0.288410000000     0.324820000000     0.680560000000    -0.249283   
O262     O      0.234150000000     0.322820000000     0.797890000000    -0.244211   
O263     O      0.336880000000     0.255010000000     0.744990000000    -0.242614   
O264     O      0.373120000000     0.347680000000     0.733040000000    -0.256109   
O265     O      0.071280000000     0.400850000000     0.419120000000    -0.248596   
O266     O      0.942660000000     0.446320000000     0.466620000000    -0.244168   
O267     O      0.934120000000     0.425910000000     0.361180000000    -0.238767   
O268     O      0.076370000000     0.470290000000     0.410500000000    -0.253558   
O269     O      0.013090000000     0.496210000000     0.427490000000    -0.250124   
O270     O      0.983220000000     0.460740000000     0.333620000000    -0.234209   
O271     O      0.024040000000     0.388530000000     0.364690000000    -0.247365   
O272     O      0.989710000000     0.406020000000     0.478290000000    -0.246065   
O273     O      0.026390000000     0.529490000000     0.691660000000    -0.250707   
O274     O      0.067930000000     0.602990000000     0.754230000000    -0.245818   
O275     O      0.073050000000     0.486840000000     0.791520000000    -0.233462   
O276     O      0.008830000000     0.564250000000     0.826710000000    -0.238664   
O277     O      0.080040000000     0.552500000000     0.844940000000    -0.245558   
O278     O      0.134380000000     0.511550000000     0.766420000000    -0.240546   
O279     O      0.979520000000     0.526110000000     0.748590000000    -0.243445   
O280     O      0.116660000000     0.572570000000     0.717660000000    -0.2513     
O281     O      0.133690000000     0.176090000000     0.404340000000    -0.236903   
O282     O      0.276620000000     0.149570000000     0.327240000000    -0.246595   
O283     O      0.197900000000     0.235700000000     0.387820000000    -0.246543   
O284     O      0.202800000000     0.196510000000     0.283310000000    -0.241245   
O285     O      0.151420000000     0.160840000000     0.303790000000    -0.242574   
O286     O      0.267570000000     0.216230000000     0.390740000000    -0.26551    
O287     O      0.185360000000     0.139990000000     0.423130000000    -0.234359   
O288     O      0.253250000000     0.131600000000     0.392120000000    -0.235218   
O289     O      0.966500000000     0.295120000000     0.389320000000    -0.234764   
O290     O      0.052050000000     0.242370000000     0.487880000000    -0.238092   
O291     O      0.923220000000     0.234950000000     0.404500000000    -0.243773   
O292     O      0.940370000000     0.309750000000     0.497550000000    -0.245855   
O293     O      0.977530000000     0.275230000000     0.539300000000    -0.243001   
O294     O      0.907560000000     0.228320000000     0.475470000000    -0.243146   
O295     O      0.037250000000     0.290780000000     0.413950000000    -0.242868   
O296     O      0.008500000000     0.206510000000     0.454650000000    -0.249714   
O297     O      0.080310000000     0.420580000000     0.586190000000    -0.247111   
O298     O      0.098570000000     0.419020000000     0.729110000000    -0.232672   
O299     O      0.149510000000     0.346350000000     0.629480000000    -0.238124   
O300     O      0.013750000000     0.379640000000     0.676060000000    -0.256757   
O301     O      0.043910000000     0.346340000000     0.627580000000    -0.240483   
O302     O      0.177050000000     0.395610000000     0.628750000000    -0.244689   
O303     O      0.089120000000     0.449830000000     0.646510000000    -0.236525   
O304     O      0.130070000000     0.371010000000     0.728770000000    -0.247678   
O305     O      0.160990000000     0.501690000000     0.525040000000    -0.251239   
O306     O      0.322900000000     0.481200000000     0.534380000000    -0.240317   
O307     O      0.224200000000     0.544470000000     0.565550000000    -0.240634   
O308     O      0.290650000000     0.544610000000     0.471070000000    -0.244681   
O309     O      0.237420000000     0.520490000000     0.432000000000    -0.253425   
O310     O      0.259930000000     0.502260000000     0.593000000000    -0.242648   
O311     O      0.187630000000     0.458260000000     0.492240000000    -0.236929   
O312     O      0.280590000000     0.446150000000     0.498090000000    -0.238873   
O313     O      0.872700000000     0.151950000000     0.687800000000    -0.250259   
O314     O      0.894410000000     0.069660000000     0.625110000000    -0.238671   
O315     O      0.849840000000     0.163880000000     0.548880000000    -0.235043   
O316     O      0.787640000000     0.132160000000     0.596200000000    -0.243769   
O317     O      0.807260000000     0.094080000000     0.643190000000    -0.236143   
O318     O      0.889190000000     0.120850000000     0.529980000000    -0.245346   
O319     O      0.912800000000     0.177390000000     0.637190000000    -0.245218   
O320     O      0.949170000000     0.101710000000     0.601230000000    -0.246263   
O321     O      0.378860000000     0.283030000000     0.291490000000    -0.238373   
O322     O      0.325430000000     0.369470000000     0.280950000000    -0.247926   
O323     O      0.288700000000     0.302880000000     0.339960000000    -0.240749   
O324     O      0.248220000000     0.286850000000     0.213260000000    -0.237441   
O325     O      0.288410000000     0.324820000000     0.180560000000    -0.249291   
O326     O      0.234150000000     0.322820000000     0.297880000000    -0.244124   
O327     O      0.336880000000     0.255010000000     0.244990000000    -0.242615   
O328     O      0.373120000000     0.347680000000     0.233040000000    -0.256109   
O329     O      0.071280000000     0.400850000000     0.919120000000    -0.248575   
O330     O      0.942660000000     0.446320000000     0.966620000000    -0.244131   
O331     O      0.934120000000     0.425910000000     0.861170000000    -0.238835   
O332     O      0.076370000000     0.470290000000     0.910500000000    -0.25352    
O333     O      0.013090000000     0.496210000000     0.927490000000    -0.250164   
O334     O      0.983220000000     0.460740000000     0.833620000000    -0.234253   
O335     O      0.024040000000     0.388530000000     0.864690000000    -0.247369   
O336     O      0.989710000000     0.406020000000     0.978290000000    -0.246033   
O337     O      0.026390000000     0.529490000000     0.191660000000    -0.250708   
O338     O      0.067930000000     0.602990000000     0.254230000000    -0.245818   
O339     O      0.073050000000     0.486840000000     0.291520000000    -0.233461   
O340     O      0.008830000000     0.564250000000     0.326710000000    -0.238665   
O341     O      0.080040000000     0.552500000000     0.344940000000    -0.245553   
O342     O      0.134380000000     0.511550000000     0.266420000000    -0.240545   
O343     O      0.979520000000     0.526110000000     0.248590000000    -0.243444   
O344     O      0.116660000000     0.572570000000     0.217660000000    -0.2513     
O345     O      0.133690000000     0.176090000000     0.904340000000    -0.236903   
O346     O      0.276620000000     0.149570000000     0.827250000000    -0.246673   
O347     O      0.197900000000     0.235700000000     0.887820000000    -0.246536   
O348     O      0.202800000000     0.196510000000     0.783310000000    -0.241246   
O349     O      0.151420000000     0.160840000000     0.803790000000    -0.242576   
O350     O      0.267570000000     0.216230000000     0.890740000000    -0.265503   
O351     O      0.185360000000     0.139990000000     0.923130000000    -0.234342   
O352     O      0.253250000000     0.131600000000     0.892120000000    -0.235231   
O353     O      0.966500000000     0.295120000000     0.889320000000    -0.234754   
O354     O      0.052050000000     0.242370000000     0.987880000000    -0.238024   
O355     O      0.923220000000     0.234950000000     0.904500000000    -0.2438     
O356     O      0.940370000000     0.309750000000     0.997550000000    -0.24567    
O357     O      0.977530000000     0.275230000000     0.039300000000    -0.24304    
O358     O      0.907560000000     0.228320000000     0.975460000000    -0.243186   
O359     O      0.037250000000     0.290780000000     0.913950000000    -0.242853   
O360     O      0.008500000000     0.206510000000     0.954650000000    -0.249692   
O361     O      0.080310000000     0.420580000000     0.086190000000    -0.247126   
O362     O      0.098570000000     0.419020000000     0.229100000000    -0.232631   
O363     O      0.149510000000     0.346350000000     0.129480000000    -0.238134   
O364     O      0.013750000000     0.379640000000     0.176060000000    -0.256758   
O365     O      0.043910000000     0.346340000000     0.127580000000    -0.240501   
O366     O      0.177050000000     0.395610000000     0.128750000000    -0.244693   
O367     O      0.089120000000     0.449830000000     0.146510000000    -0.23651    
O368     O      0.130070000000     0.371010000000     0.228770000000    -0.247663   
O369     O      0.160990000000     0.501690000000     0.025040000000    -0.251227   
O370     O      0.322900000000     0.481200000000     0.034380000000    -0.240334   
O371     O      0.224200000000     0.544470000000     0.065550000000    -0.240669   
O372     O      0.290650000000     0.544610000000     0.971070000000    -0.244581   
O373     O      0.237420000000     0.520490000000     0.932000000000    -0.253368   
O374     O      0.259930000000     0.502260000000     0.093000000000    -0.242656   
O375     O      0.187630000000     0.458260000000     0.992240000000    -0.23673    
O376     O      0.280600000000     0.446150000000     0.998090000000    -0.238734   
O377     O      0.872700000000     0.151950000000     0.187800000000    -0.250257   
O378     O      0.894410000000     0.069660000000     0.125110000000    -0.238676   
O379     O      0.849840000000     0.163880000000     0.048870000000    -0.235124   
O380     O      0.787640000000     0.132160000000     0.096200000000    -0.243794   
O381     O      0.807260000000     0.094080000000     0.143190000000    -0.236144   
O382     O      0.889190000000     0.120850000000     0.029980000000    -0.245395   
O383     O      0.912800000000     0.177390000000     0.137190000000    -0.245234   
O384     O      0.949170000000     0.101710000000     0.101230000000    -0.246281   
O385     O      0.378860000000     0.783030000000     0.791490000000    -0.238377   
O386     O      0.325430000000     0.869470000000     0.780950000000    -0.24792    
O387     O      0.288700000000     0.802880000000     0.839960000000    -0.240771   
O388     O      0.248220000000     0.786850000000     0.713260000000    -0.237442   
O389     O      0.288410000000     0.824820000000     0.680560000000    -0.249284   
O390     O      0.234150000000     0.822820000000     0.797890000000    -0.244199   
O391     O      0.336880000000     0.755010000000     0.744990000000    -0.242622   
O392     O      0.373120000000     0.847680000000     0.733040000000    -0.256111   
O393     O      0.071280000000     0.900850000000     0.419120000000    -0.248598   
O394     O      0.942660000000     0.946330000000     0.466620000000    -0.244062   
O395     O      0.934120000000     0.925910000000     0.361180000000    -0.238789   
O396     O      0.076370000000     0.970290000000     0.410500000000    -0.253532   
O397     O      0.013090000000     0.996210000000     0.427490000000    -0.250198   
O398     O      0.983220000000     0.960740000000     0.333620000000    -0.234234   
O399     O      0.024040000000     0.888530000000     0.364690000000    -0.247366   
O400     O      0.989710000000     0.906020000000     0.478290000000    -0.246031   
O401     O      0.026380000000     0.029490000000     0.691660000000    -0.250814   
O402     O      0.067930000000     0.102990000000     0.754230000000    -0.245823   
O403     O      0.073050000000     0.986840000000     0.791520000000    -0.233464   
O404     O      0.008830000000     0.064250000000     0.826710000000    -0.238661   
O405     O      0.080040000000     0.052500000000     0.844940000000    -0.245555   
O406     O      0.134380000000     0.011550000000     0.766420000000    -0.24052    
O407     O      0.979520000000     0.026110000000     0.748590000000    -0.243487   
O408     O      0.116660000000     0.072570000000     0.717660000000    -0.2513     
O409     O      0.133680000000     0.676090000000     0.404340000000    -0.236869   
O410     O      0.276620000000     0.649570000000     0.327250000000    -0.246649   
O411     O      0.197900000000     0.735700000000     0.387820000000    -0.246549   
O412     O      0.202800000000     0.696510000000     0.283310000000    -0.241186   
O413     O      0.151420000000     0.660840000000     0.303790000000    -0.242591   
O414     O      0.267570000000     0.716230000000     0.390740000000    -0.265515   
O415     O      0.185360000000     0.639990000000     0.423130000000    -0.234349   
O416     O      0.253240000000     0.631600000000     0.392120000000    -0.235179   
O417     O      0.966500000000     0.795120000000     0.389320000000    -0.234846   
O418     O      0.052050000000     0.742370000000     0.487880000000    -0.238086   
O419     O      0.923220000000     0.734950000000     0.404500000000    -0.243756   
O420     O      0.940370000000     0.809750000000     0.497550000000    -0.245873   
O421     O      0.977530000000     0.775230000000     0.539300000000    -0.243005   
O422     O      0.907560000000     0.728320000000     0.475470000000    -0.243129   
O423     O      0.037250000000     0.790780000000     0.413950000000    -0.242842   
O424     O      0.008500000000     0.706510000000     0.454650000000    -0.249688   
O425     O      0.080310000000     0.920580000000     0.586190000000    -0.24711    
O426     O      0.098570000000     0.919020000000     0.729110000000    -0.232761   
O427     O      0.149510000000     0.846350000000     0.629480000000    -0.238083   
O428     O      0.013750000000     0.879640000000     0.676060000000    -0.256755   
O429     O      0.043910000000     0.846340000000     0.627580000000    -0.240485   
O430     O      0.177050000000     0.895620000000     0.628750000000    -0.244558   
O431     O      0.089120000000     0.949830000000     0.646510000000    -0.236524   
O432     O      0.130070000000     0.871010000000     0.728780000000    -0.247645   
O433     O      0.160990000000     0.001690000000     0.525040000000    -0.251207   
O434     O      0.322900000000     0.981200000000     0.534380000000    -0.240377   
O435     O      0.224200000000     0.044470000000     0.565550000000    -0.240672   
O436     O      0.290650000000     0.044610000000     0.471070000000    -0.244674   
O437     O      0.237420000000     0.020490000000     0.432000000000    -0.253415   
O438     O      0.259930000000     0.002260000000     0.593000000000    -0.242544   
O439     O      0.187630000000     0.958260000000     0.492240000000    -0.236924   
O440     O      0.280590000000     0.946160000000     0.498090000000    -0.239021   
O441     O      0.872700000000     0.651950000000     0.687800000000    -0.250258   
O442     O      0.894410000000     0.569660000000     0.625110000000    -0.238667   
O443     O      0.849840000000     0.663880000000     0.548880000000    -0.235126   
O444     O      0.787640000000     0.632160000000     0.596200000000    -0.24377    
O445     O      0.807260000000     0.594080000000     0.643190000000    -0.236142   
O446     O      0.889190000000     0.620860000000     0.529980000000    -0.245451   
O447     O      0.912800000000     0.677390000000     0.637190000000    -0.245211   
O448     O      0.949170000000     0.601710000000     0.601230000000    -0.246258   
O449     O      0.378860000000     0.783030000000     0.291490000000    -0.238383   
O450     O      0.325430000000     0.869470000000     0.280950000000    -0.247925   
O451     O      0.288700000000     0.802880000000     0.339960000000    -0.24074    
O452     O      0.248220000000     0.786850000000     0.213260000000    -0.237442   
O453     O      0.288410000000     0.824820000000     0.180560000000    -0.249285   
O454     O      0.234150000000     0.822820000000     0.297880000000    -0.244112   
O455     O      0.336880000000     0.755010000000     0.244990000000    -0.242629   
O456     O      0.373120000000     0.847680000000     0.233040000000    -0.256112   
O457     O      0.071280000000     0.900850000000     0.919120000000    -0.248577   
O458     O      0.942660000000     0.946330000000     0.966620000000    -0.244021   
O459     O      0.934120000000     0.925910000000     0.861170000000    -0.238902   
O460     O      0.076370000000     0.970290000000     0.910500000000    -0.253519   
O461     O      0.013090000000     0.996210000000     0.927490000000    -0.250166   
O462     O      0.983220000000     0.960740000000     0.833620000000    -0.23421    
O463     O      0.024040000000     0.888530000000     0.864690000000    -0.247374   
O464     O      0.989710000000     0.906020000000     0.978290000000    -0.245991   
O465     O      0.026380000000     0.029490000000     0.191660000000    -0.250816   
O466     O      0.067930000000     0.102990000000     0.254230000000    -0.245823   
O467     O      0.073050000000     0.986840000000     0.291520000000    -0.233462   
O468     O      0.008830000000     0.064250000000     0.326710000000    -0.238662   
O469     O      0.080040000000     0.052500000000     0.344940000000    -0.245553   
O470     O      0.134380000000     0.011550000000     0.266420000000    -0.240518   
O471     O      0.979520000000     0.026110000000     0.248590000000    -0.243488   
O472     O      0.116660000000     0.072570000000     0.217660000000    -0.251301   
O473     O      0.133680000000     0.676090000000     0.904340000000    -0.236868   
O474     O      0.276620000000     0.649570000000     0.827250000000    -0.246628   
O475     O      0.197900000000     0.735700000000     0.887820000000    -0.246541   
O476     O      0.202800000000     0.696510000000     0.783310000000    -0.241187   
O477     O      0.151420000000     0.660840000000     0.803790000000    -0.242592   
O478     O      0.267570000000     0.716230000000     0.890740000000    -0.265512   
O479     O      0.185360000000     0.639990000000     0.923130000000    -0.234335   
O480     O      0.253240000000     0.631600000000     0.892120000000    -0.235143   
O481     O      0.966500000000     0.795120000000     0.889320000000    -0.234789   
O482     O      0.052050000000     0.742370000000     0.987880000000    -0.238017   
O483     O      0.923220000000     0.734950000000     0.904500000000    -0.243791   
O484     O      0.940370000000     0.809750000000     0.997550000000    -0.245688   
O485     O      0.977530000000     0.775230000000     0.039300000000    -0.243043   
O486     O      0.907560000000     0.728320000000     0.975460000000    -0.243171   
O487     O      0.037250000000     0.790780000000     0.913950000000    -0.24288    
O488     O      0.008500000000     0.706510000000     0.954650000000    -0.249667   
O489     O      0.080310000000     0.920580000000     0.086190000000    -0.247125   
O490     O      0.098570000000     0.919020000000     0.229100000000    -0.232631   
O491     O      0.149510000000     0.846350000000     0.129480000000    -0.238092   
O492     O      0.013750000000     0.879640000000     0.176060000000    -0.256757   
O493     O      0.043910000000     0.846340000000     0.127580000000    -0.240502   
O494     O      0.177050000000     0.895620000000     0.128750000000    -0.244564   
O495     O      0.089120000000     0.949830000000     0.146510000000    -0.236511   
O496     O      0.130070000000     0.871010000000     0.228770000000    -0.247664   
O497     O      0.160990000000     0.001690000000     0.025040000000    -0.251197   
O498     O      0.322900000000     0.981200000000     0.034380000000    -0.240333   
O499     O      0.224200000000     0.044470000000     0.065550000000    -0.240706   
O500     O      0.290650000000     0.044610000000     0.971070000000    -0.244577   
O501     O      0.237420000000     0.020490000000     0.932000000000    -0.253362   
O502     O      0.259930000000     0.002260000000     0.093000000000    -0.242552   
O503     O      0.187630000000     0.958260000000     0.992240000000    -0.23673    
O504     O      0.280590000000     0.946150000000     0.998090000000    -0.238679   
O505     O      0.872700000000     0.651950000000     0.187800000000    -0.250259   
O506     O      0.894410000000     0.569660000000     0.125110000000    -0.238673   
O507     O      0.849840000000     0.663880000000     0.048870000000    -0.235181   
O508     O      0.787640000000     0.632160000000     0.096200000000    -0.243793   
O509     O      0.807260000000     0.594080000000     0.143190000000    -0.236143   
O510     O      0.889190000000     0.620860000000     0.029980000000    -0.245532   
O511     O      0.912800000000     0.677390000000     0.137190000000    -0.245231   
O512     O      0.949170000000     0.601710000000     0.101230000000    -0.246277   


