data_structure

_audit_creation_method RASPA-1.0
_audit_creation_date 2023-6-5
_audit_author_name 'Poobodin Mano'

_cell_length_a    31.1319
_cell_length_b    31.7737
_cell_length_c    34.3064
_cell_angle_alpha 89.5528
_cell_angle_beta  90.4473
_cell_angle_gamma 89.9991
_cell_volume      33933

_symmetry_cell_setting          triclinic
_symmetry_space_group_name_Hall 'P 1'
_symmetry_space_group_name_H-M  'P 1'
_symmetry_Int_Tables_number     1

_symmetry_equiv_pos_as_xyz 'x,y,z'

loop_
_atom_site_label
_atom_site_type_symbol
_atom_site_fract_x
_atom_site_fract_y
_atom_site_fract_z
_atom_site_charge
C1       C      0.325060000000     0.406760000000     0.985550000000     0.410351   
C2       C      0.297370000000     0.283440000000     0.419960000000     0.418637   
C3       C      0.419930000000     0.315970000000     0.480970000000     0.416046   
C4       C      0.293610000000     0.284080000000     0.043570000000     0.409056   
C5       C      0.323230000000     0.580840000000     0.491090000000     0.414383   
C6       C      0.297190000000     0.706900000000     0.057150000000     0.418039   
C7       C      0.419360000000     0.673050000000     0.002530000000     0.408822   
C8       C      0.296750000000     0.700140000000     0.431690000000     0.410638   
C9       C      0.597420000000     0.314020000000     0.974050000000     0.40975    
C10      C      0.721090000000     0.287290000000     0.415730000000     0.41862    
C11      C      0.693620000000     0.409370000000     0.480400000000     0.415837   
C12      C      0.722960000000     0.286630000000     0.039110000000     0.409282   
C13      C      0.691760000000     0.583150000000     0.987320000000     0.415089   
C14      C      0.719680000000     0.703730000000     0.431750000000     0.410494   
C15      C      0.597010000000     0.675560000000     0.502340000000     0.410798   
C16      C      0.721760000000     0.704280000000     0.057380000000     0.417042   
C17      C      0.819300000000     0.081300000000     0.228340000000     0.417466   
C18      C      0.794470000000     0.208000000000     0.289450000000     0.411844   
C19      C      0.916700000000     0.174340000000     0.237770000000     0.411712   
C20      C      0.794280000000     0.202470000000     0.165990000000     0.407788   
C21      C      0.920270000000     0.817310000000     0.244650000000     0.410451   
C22      C      0.794380000000     0.784400000000     0.305660000000     0.417558   
C23      C      0.824040000000     0.907630000000     0.237970000000     0.415603   
C24      C      0.796340000000     0.782800000000     0.184350000000     0.408747   
C25      C      0.098130000000     0.817450000000     0.245480000000     0.407975   
C26      C      0.221160000000     0.785980000000     0.182290000000     0.410115   
C27      C      0.193280000000     0.908660000000     0.240470000000     0.420689   
C28      C      0.223260000000     0.782650000000     0.304870000000     0.417586   
C29      C      0.094380000000     0.171440000000     0.237840000000     0.41643    
C30      C      0.220280000000     0.206660000000     0.293170000000     0.414834   
C31      C      0.191320000000     0.082770000000     0.233020000000     0.414014   
C32      C      0.215660000000     0.206490000000     0.169830000000     0.414378   
C33      C      0.178880000000     0.016140000000     0.204230000000     0.0359374  
C34      C      0.211960000000     0.019910000000     0.266110000000     0.0315728  
C35      C      0.179640000000     0.972300000000     0.206500000000     0.0341449  
C36      C      0.212840000000     0.975820000000     0.268670000000     0.0526593  
C37      C      0.232120000000     0.957520000000     0.303410000000     0.0690332  
C38      C      0.031600000000     0.832650000000     0.275560000000     0.0351821  
C39      C      0.032350000000     0.797630000000     0.215280000000     0.0299997  
C40      C      0.986820000000     0.832400000000     0.274980000000     0.033044   
C41      C      0.987290000000     0.797200000000     0.214450000000     0.051331   
C42      C      0.966910000000     0.777270000000     0.181290000000     0.0692063  
C43      C      0.812230000000     0.974210000000     0.266700000000     0.0357867  
C44      C      0.825000000000     0.969890000000     0.199230000000     0.0306476  
C45      C      0.810820000000     0.017940000000     0.263770000000     0.0338329  
C46      C      0.823330000000     0.013900000000     0.195950000000     0.0511953  
C47      C      0.828690000000     0.031880000000     0.157380000000     0.0654663  
C48      C      0.983390000000     0.197130000000     0.212100000000     0.035889   
C49      C      0.982250000000     0.153940000000     0.268240000000     0.0301961  
C50      C      0.028150000000     0.195590000000     0.212110000000     0.0340929  
C51      C      0.027270000000     0.152690000000     0.268810000000     0.052151   
C52      C      0.047390000000     0.128390000000     0.299830000000     0.0671714  
C53      C      0.781220000000     0.722960000000     0.395210000000     0.0358913  
C54      C      0.712380000000     0.743510000000     0.373260000000     0.0311514  
C55      C      0.799580000000     0.743300000000     0.363230000000     0.0337485  
C56      C      0.730560000000     0.764430000000     0.341270000000     0.052543   
C57      C      0.701130000000     0.784770000000     0.314190000000     0.0688794  
C58      C      0.743180000000     0.779900000000     0.134580000000     0.0369974  
C59      C      0.794420000000     0.725550000000     0.140410000000     0.0316135  
C60      C      0.724670000000     0.759760000000     0.102670000000     0.0335088  
C61      C      0.776210000000     0.705210000000     0.108170000000     0.0525726  
C62      C      0.795680000000     0.665840000000     0.096730000000     0.0706749  
C63      C      0.738410000000     0.214690000000     0.335430000000     0.0366078  
C64      C      0.796580000000     0.262130000000     0.336730000000     0.0307356  
C65      C      0.720360000000     0.234810000000     0.367340000000     0.034042   
C66      C      0.778680000000     0.282570000000     0.368830000000     0.0537471  
C67      C      0.802470000000     0.317920000000     0.384400000000     0.0726995  
C68      C      0.736570000000     0.239520000000     0.135870000000     0.0347889  
C69      C      0.799940000000     0.227040000000     0.100680000000     0.0312073  
C70      C      0.719230000000     0.261090000000     0.103860000000     0.033972   
C71      C      0.782730000000     0.248570000000     0.068300000000     0.0516193  
C72      C      0.809580000000     0.251750000000     0.034120000000     0.069332   
C73      C      0.699110000000     0.472640000000     0.016350000000     0.0362259  
C74      C      0.693770000000     0.475500000000     0.447820000000     0.0313411  
C75      C      0.698530000000     0.516470000000     0.017610000000     0.0362599  
C76      C      0.693210000000     0.519590000000     0.448790000000     0.0520381  
C77      C      0.690900000000     0.541530000000     0.411670000000     0.0668451  
C78      C      0.235370000000     0.723030000000     0.395820000000     0.036576   
C79      C      0.304600000000     0.736260000000     0.371330000000     0.0318282  
C80      C      0.217300000000     0.743810000000     0.363650000000     0.0340193  
C81      C      0.286770000000     0.757660000000     0.339160000000     0.0529491  
C82      C      0.316480000000     0.774100000000     0.310560000000     0.0693737  
C83      C      0.225440000000     0.728970000000     0.138180000000     0.0356771  
C84      C      0.273970000000     0.785590000000     0.132780000000     0.0313992  
C85      C      0.244790000000     0.709500000000     0.106530000000     0.0336872  
C86      C      0.293850000000     0.766110000000     0.101130000000     0.0518677  
C87      C      0.329450000000     0.788300000000     0.083450000000     0.0676696  
C88      C      0.486490000000     0.645760000000     0.523880000000     0.0349107  
C89      C      0.484310000000     0.707780000000     0.485800000000     0.0314356  
C90      C      0.531240000000     0.646860000000     0.523710000000     0.0331376  
C91      C      0.529360000000     0.709210000000     0.485560000000     0.0522203  
C92      C      0.548990000000     0.744240000000     0.465160000000     0.0721134  
C93      C      0.217340000000     0.252540000000     0.347320000000     0.0361108  
C94      C      0.282210000000     0.218230000000     0.332360000000     0.0309269  
C95      C      0.237150000000     0.271650000000     0.379180000000     0.0337349  
C96      C      0.302370000000     0.237180000000     0.364390000000     0.0519741  
C97      C      0.347310000000     0.227320000000     0.370750000000     0.0683247  
C98      C      0.284570000000     0.225080000000     0.085670000000     0.0356395  
C99      C      0.242730000000     0.285960000000     0.094740000000     0.0301298  
C100     C      0.264520000000     0.205850000000     0.117400000000     0.0338145  
C101     C      0.222520000000     0.266960000000     0.126770000000     0.0516142  
C102     C      0.189920000000     0.291430000000     0.146190000000     0.0681306  
C103     C      0.529620000000     0.334610000000     0.448510000000     0.034694   
C104     C      0.533020000000     0.288510000000     0.002590000000     0.031237   
C105     C      0.484980000000     0.334980000000     0.450710000000     0.0346707  
C106     C      0.488040000000     0.289050000000     0.005290000000     0.053411   
C107     C      0.469000000000     0.263500000000     0.035710000000     0.0686663  
C108     C      0.329800000000     0.470500000000     0.020840000000     0.036377   
C109     C      0.312840000000     0.472510000000     0.453800000000     0.0303131  
C110     C      0.328700000000     0.514340000000     0.021910000000     0.0350903  
C111     C      0.312250000000     0.516690000000     0.454490000000     0.0514017  
C112     C      0.301590000000     0.538270000000     0.418360000000     0.0655842  
C113     C      0.325060000000     0.406750000000     0.485550000000     0.412591   
C114     C      0.297370000000     0.283440000000     0.919960000000     0.418528   
C115     C      0.419930000000     0.315970000000     0.980960000000     0.413746   
C116     C      0.293610000000     0.284080000000     0.543570000000     0.409414   
C117     C      0.323230000000     0.580840000000     0.991090000000     0.41215    
C118     C      0.297190000000     0.706900000000     0.557150000000     0.41842    
C119     C      0.419360000000     0.673060000000     0.502530000000     0.406878   
C120     C      0.296750000000     0.700140000000     0.931690000000     0.410513   
C121     C      0.597420000000     0.314020000000     0.474050000000     0.409661   
C122     C      0.721090000000     0.287290000000     0.915730000000     0.418643   
C123     C      0.693620000000     0.409370000000     0.980400000000     0.413932   
C124     C      0.722950000000     0.286630000000     0.539110000000     0.409511   
C125     C      0.691760000000     0.583150000000     0.487330000000     0.417331   
C126     C      0.719680000000     0.703720000000     0.931750000000     0.41039    
C127     C      0.597010000000     0.675560000000     0.002340000000     0.412794   
C128     C      0.721760000000     0.704280000000     0.557380000000     0.417417   
C129     C      0.819300000000     0.081300000000     0.728340000000     0.417453   
C130     C      0.794460000000     0.208000000000     0.789450000000     0.411872   
C131     C      0.916700000000     0.174340000000     0.737770000000     0.411689   
C132     C      0.794280000000     0.202470000000     0.665990000000     0.407815   
C133     C      0.920270000000     0.817310000000     0.744650000000     0.410395   
C134     C      0.794380000000     0.784400000000     0.805650000000     0.417575   
C135     C      0.824040000000     0.907630000000     0.737970000000     0.415599   
C136     C      0.796340000000     0.782800000000     0.684350000000     0.408651   
C137     C      0.098130000000     0.817450000000     0.745480000000     0.40795    
C138     C      0.221160000000     0.785980000000     0.682290000000     0.410301   
C139     C      0.193280000000     0.908670000000     0.740480000000     0.420377   
C140     C      0.223260000000     0.782650000000     0.804870000000     0.417511   
C141     C      0.094380000000     0.171440000000     0.737840000000     0.416411   
C142     C      0.220280000000     0.206660000000     0.793170000000     0.414792   
C143     C      0.191320000000     0.082770000000     0.733020000000     0.414002   
C144     C      0.215660000000     0.206490000000     0.669830000000     0.414341   
C145     C      0.178880000000     0.016140000000     0.704230000000     0.0358915  
C146     C      0.211960000000     0.019910000000     0.766110000000     0.0315383  
C147     C      0.179640000000     0.972300000000     0.706500000000     0.0341093  
C148     C      0.212840000000     0.975820000000     0.768670000000     0.0526184  
C149     C      0.232120000000     0.957520000000     0.803410000000     0.0689244  
C150     C      0.031600000000     0.832650000000     0.775560000000     0.0351362  
C151     C      0.032350000000     0.797630000000     0.715270000000     0.0298768  
C152     C      0.986820000000     0.832400000000     0.774980000000     0.0330046  
C153     C      0.987290000000     0.797200000000     0.714450000000     0.0513386  
C154     C      0.966910000000     0.777270000000     0.681290000000     0.0690656  
C155     C      0.812230000000     0.974210000000     0.766700000000     0.0357466  
C156     C      0.825000000000     0.969890000000     0.699230000000     0.0305807  
C157     C      0.810820000000     0.017940000000     0.763770000000     0.0337912  
C158     C      0.823330000000     0.013900000000     0.695950000000     0.0511699  
C159     C      0.828690000000     0.031880000000     0.657380000000     0.0653342  
C160     C      0.983390000000     0.197130000000     0.712100000000     0.0358454  
C161     C      0.982250000000     0.153940000000     0.768240000000     0.0301755  
C162     C      0.028150000000     0.195590000000     0.712110000000     0.0340464  
C163     C      0.027270000000     0.152690000000     0.768810000000     0.0521057  
C164     C      0.047390000000     0.128390000000     0.799830000000     0.067067   
C165     C      0.781220000000     0.722960000000     0.895210000000     0.0357934  
C166     C      0.712380000000     0.743510000000     0.873260000000     0.0310801  
C167     C      0.799580000000     0.743300000000     0.863230000000     0.0336849  
C168     C      0.730560000000     0.764430000000     0.841270000000     0.0524993  
C169     C      0.701130000000     0.784770000000     0.814190000000     0.0688163  
C170     C      0.743180000000     0.779900000000     0.634580000000     0.0369114  
C171     C      0.794420000000     0.725550000000     0.640410000000     0.0315401  
C172     C      0.724670000000     0.759760000000     0.602670000000     0.0334355  
C173     C      0.776210000000     0.705210000000     0.608170000000     0.0525153  
C174     C      0.795680000000     0.665840000000     0.596730000000     0.070496   
C175     C      0.738410000000     0.214690000000     0.835430000000     0.0365409  
C176     C      0.796580000000     0.262130000000     0.836730000000     0.030681   
C177     C      0.720360000000     0.234810000000     0.867340000000     0.0339595  
C178     C      0.778680000000     0.282570000000     0.868830000000     0.0536705  
C179     C      0.802470000000     0.317920000000     0.884400000000     0.0724812  
C180     C      0.736570000000     0.239520000000     0.635860000000     0.0347728  
C181     C      0.799940000000     0.227040000000     0.600680000000     0.0311379  
C182     C      0.719230000000     0.261090000000     0.603870000000     0.0338034  
C183     C      0.782730000000     0.248570000000     0.568300000000     0.0515322  
C184     C      0.809580000000     0.251750000000     0.534120000000     0.0690042  
C185     C      0.699110000000     0.472640000000     0.516350000000     0.0350219  
C186     C      0.693770000000     0.475500000000     0.947810000000     0.0309976  
C187     C      0.698530000000     0.516470000000     0.517610000000     0.0350589  
C188     C      0.693210000000     0.519590000000     0.948790000000     0.0518062  
C189     C      0.690900000000     0.541530000000     0.911670000000     0.0667658  
C190     C      0.235370000000     0.723030000000     0.895810000000     0.0364963  
C191     C      0.304600000000     0.736260000000     0.871330000000     0.0317573  
C192     C      0.217300000000     0.743810000000     0.863650000000     0.0339422  
C193     C      0.286770000000     0.757660000000     0.839160000000     0.0529135  
C194     C      0.316480000000     0.774100000000     0.810560000000     0.0693103  
C195     C      0.225440000000     0.728970000000     0.638180000000     0.0355966  
C196     C      0.273970000000     0.785590000000     0.632780000000     0.031331   
C197     C      0.244790000000     0.709500000000     0.606520000000     0.0336411  
C198     C      0.293850000000     0.766110000000     0.601130000000     0.051805   
C199     C      0.329450000000     0.788300000000     0.583450000000     0.0674156  
C200     C      0.486490000000     0.645760000000     0.023880000000     0.0352403  
C201     C      0.484320000000     0.707780000000     0.985810000000     0.0302203  
C202     C      0.531240000000     0.646850000000     0.023710000000     0.0334085  
C203     C      0.529360000000     0.709210000000     0.985560000000     0.05116    
C204     C      0.548990000000     0.744240000000     0.965160000000     0.0719345  
C205     C      0.217340000000     0.252540000000     0.847320000000     0.0360771  
C206     C      0.282210000000     0.218230000000     0.832360000000     0.0308669  
C207     C      0.237150000000     0.271650000000     0.879180000000     0.0335928  
C208     C      0.302370000000     0.237180000000     0.864390000000     0.0519461  
C209     C      0.347320000000     0.227320000000     0.870750000000     0.0681996  
C210     C      0.284570000000     0.225080000000     0.585670000000     0.0355757  
C211     C      0.242730000000     0.285960000000     0.594740000000     0.0300597  
C212     C      0.264520000000     0.205850000000     0.617390000000     0.0336894  
C213     C      0.222520000000     0.266960000000     0.626770000000     0.0515457  
C214     C      0.189920000000     0.291430000000     0.646190000000     0.0680079  
C215     C      0.529620000000     0.334610000000     0.948500000000     0.034444   
C216     C      0.533020000000     0.288510000000     0.502590000000     0.0297992  
C217     C      0.484980000000     0.334980000000     0.950710000000     0.0343755  
C218     C      0.488040000000     0.289050000000     0.505290000000     0.0523845  
C219     C      0.469000000000     0.263500000000     0.535710000000     0.0684818  
C220     C      0.329800000000     0.470500000000     0.520840000000     0.0351722  
C221     C      0.312840000000     0.472510000000     0.953800000000     0.0300335  
C222     C      0.328700000000     0.514340000000     0.521910000000     0.0339042  
C223     C      0.312250000000     0.516690000000     0.954490000000     0.0511487  
C224     C      0.301590000000     0.538270000000     0.918360000000     0.065479   
H1       H      0.166300000000     0.955110000000     0.182050000000     0.0477521  
H2       H      0.165080000000     0.030700000000     0.178320000000     0.0466169  
H3       H      0.225060000000     0.038020000000     0.290160000000     0.0532289  
H4       H      0.970530000000     0.846690000000     0.299380000000     0.0479313  
H5       H      0.047750000000     0.847030000000     0.300220000000     0.0473714  
H6       H      0.049600000000     0.783580000000     0.191240000000     0.0520874  
H7       H      0.805230000000     0.035320000000     0.290340000000     0.0493111  
H8       H      0.807680000000     0.959900000000     0.295180000000     0.0473679  
H9       H      0.830570000000     0.951560000000     0.173140000000     0.0515643  
H10      H      0.044640000000     0.212640000000     0.189160000000     0.0505849  
H11      H      0.967390000000     0.214920000000     0.189110000000     0.0492179  
H12      H      0.964830000000     0.136950000000     0.290720000000     0.0509947  
H13      H      0.834270000000     0.742190000000     0.360730000000     0.0480406  
H14      H      0.802380000000     0.707070000000     0.415830000000     0.0478147  
H15      H      0.677690000000     0.744010000000     0.376450000000     0.0562502  
H16      H      0.697110000000     0.774750000000     0.088870000000     0.0487132  
H17      H      0.729160000000     0.809340000000     0.143980000000     0.0497737  
H18      H      0.822040000000     0.711280000000     0.154880000000     0.0549993  
H19      H      0.690140000000     0.222640000000     0.378200000000     0.0477082  
H20      H      0.721440000000     0.188000000000     0.323210000000     0.0485808  
H21      H      0.826870000000     0.273560000000     0.325220000000     0.0512992  
H22      H      0.687110000000     0.273850000000     0.106800000000     0.0495413  
H23      H      0.717270000000     0.236790000000     0.161950000000     0.0468902  
H24      H      0.832090000000     0.213960000000     0.098650000000     0.0541271  
H25      H      0.700430000000     0.530970000000     0.046090000000     0.050659   
H26      H      0.701340000000     0.455370000000     0.043690000000     0.0463179  
H27      H      0.691910000000     0.460050000000     0.419710000000     0.0529764  
H28      H      0.182550000000     0.745850000000     0.362140000000     0.0482258  
H29      H      0.213910000000     0.709970000000     0.417530000000     0.0470553  
H30      H      0.339340000000     0.733650000000     0.373550000000     0.0545268  
H31      H      0.231890000000     0.679410000000     0.097410000000     0.0484028  
H32      H      0.198580000000     0.713190000000     0.151950000000     0.0479785  
H33      H      0.286170000000     0.815800000000     0.142540000000     0.0535578  
H34      H      0.548100000000     0.621820000000     0.539120000000     0.0473326  
H35      H      0.470950000000     0.620100000000     0.539310000000     0.0464699  
H36      H      0.466470000000     0.732370000000     0.470590000000     0.0550872  
H37      H      0.217750000000     0.292490000000     0.396700000000     0.0481954  
H38      H      0.183730000000     0.259430000000     0.341670000000     0.0483239  
H39      H      0.300840000000     0.197200000000     0.314250000000     0.0521184  
H40      H      0.274480000000     0.174110000000     0.125060000000     0.0488709  
H41      H      0.308890000000     0.207420000000     0.070310000000     0.0502037  
H42      H      0.233370000000     0.317720000000     0.086350000000     0.0516278  
H43      H      0.467690000000     0.353970000000     0.429370000000     0.0484588  
H44      H      0.544640000000     0.353240000000     0.425750000000     0.0470685  
H45      H      0.551340000000     0.269830000000     0.023520000000     0.0519622  
H46      H      0.335340000000     0.529140000000     0.049700000000     0.0489419  
H47      H      0.336970000000     0.453600000000     0.047700000000     0.0468505  
H48      H      0.306210000000     0.456710000000     0.426430000000     0.0513162  
H49      H      0.166300000000     0.955110000000     0.682050000000     0.0476525  
H50      H      0.165080000000     0.030700000000     0.678320000000     0.0465157  
H51      H      0.225060000000     0.038020000000     0.790160000000     0.0531529  
H52      H      0.970530000000     0.846690000000     0.799380000000     0.0478407  
H53      H      0.047750000000     0.847030000000     0.800220000000     0.0472853  
H54      H      0.049600000000     0.783580000000     0.691240000000     0.0520241  
H55      H      0.805230000000     0.035320000000     0.790340000000     0.0492207  
H56      H      0.807680000000     0.959900000000     0.795180000000     0.0472765  
H57      H      0.830570000000     0.951560000000     0.673150000000     0.0514758  
H58      H      0.044640000000     0.212640000000     0.689160000000     0.0505007  
H59      H      0.967390000000     0.214920000000     0.689110000000     0.049137   
H60      H      0.964830000000     0.136950000000     0.790730000000     0.0509075  
H61      H      0.834270000000     0.742190000000     0.860730000000     0.0479407  
H62      H      0.802380000000     0.707070000000     0.915830000000     0.0476225  
H63      H      0.677690000000     0.744010000000     0.876450000000     0.0561924  
H64      H      0.697110000000     0.774750000000     0.588870000000     0.048513   
H65      H      0.729160000000     0.809340000000     0.643980000000     0.0496815  
H66      H      0.822040000000     0.711280000000     0.654880000000     0.0549442  
H67      H      0.690140000000     0.222640000000     0.878200000000     0.0475811  
H68      H      0.721440000000     0.188000000000     0.823210000000     0.0485046  
H69      H      0.826870000000     0.273560000000     0.825220000000     0.0512316  
H70      H      0.687110000000     0.273850000000     0.606800000000     0.0494686  
H71      H      0.717270000000     0.236790000000     0.661950000000     0.0468371  
H72      H      0.832090000000     0.213960000000     0.598650000000     0.0540147  
H73      H      0.700430000000     0.530970000000     0.546090000000     0.0507204  
H74      H      0.701340000000     0.455370000000     0.543690000000     0.0463522  
H75      H      0.691910000000     0.460050000000     0.919710000000     0.0529886  
H76      H      0.182550000000     0.745850000000     0.862140000000     0.0481281  
H77      H      0.213910000000     0.709970000000     0.917530000000     0.046862   
H78      H      0.339340000000     0.733650000000     0.873550000000     0.0544619  
H79      H      0.231890000000     0.679410000000     0.597410000000     0.0482327  
H80      H      0.198580000000     0.713190000000     0.651950000000     0.0478954  
H81      H      0.286170000000     0.815800000000     0.642540000000     0.0534812  
H82      H      0.548100000000     0.621820000000     0.039120000000     0.0474568  
H83      H      0.470940000000     0.620100000000     0.039300000000     0.0465818  
H84      H      0.466470000000     0.732370000000     0.970590000000     0.0550798  
H85      H      0.217750000000     0.292490000000     0.896700000000     0.048047   
H86      H      0.183730000000     0.259430000000     0.841670000000     0.0482322  
H87      H      0.300840000000     0.197200000000     0.814250000000     0.0520732  
H88      H      0.274480000000     0.174110000000     0.625060000000     0.0487849  
H89      H      0.308890000000     0.207420000000     0.570310000000     0.0500164  
H90      H      0.233370000000     0.317720000000     0.586350000000     0.0514736  
H91      H      0.467690000000     0.353970000000     0.929370000000     0.048421   
H92      H      0.544640000000     0.353240000000     0.925750000000     0.0470089  
H93      H      0.551340000000     0.269830000000     0.523520000000     0.0518573  
H94      H      0.335340000000     0.529140000000     0.549700000000     0.048992   
H95      H      0.336970000000     0.453600000000     0.547700000000     0.0468953  
H96      H      0.306210000000     0.456710000000     0.926430000000     0.0512952  
In1      In     0.333090000000     0.322110000000     0.482590000000     2.42131    
In2      In     0.332910000000     0.665510000000     0.496340000000     2.40943    
In3      In     0.683680000000     0.324700000000     0.477370000000     2.41531    
In4      In     0.683350000000     0.667460000000     0.495110000000     2.42272    
In5      In     0.830530000000     0.166110000000     0.229960000000     2.4131     
In6      In     0.833430000000     0.823250000000     0.244580000000     2.42675    
In7      In     0.184640000000     0.823670000000     0.244100000000     2.42065    
In8      In     0.181160000000     0.167300000000     0.232940000000     2.42423    
In9      In     0.333100000000     0.322110000000     0.982590000000     2.41627    
In10     In     0.332910000000     0.665510000000     0.996340000000     2.40416    
In11     In     0.683680000000     0.324700000000     0.977370000000     2.41177    
In12     In     0.683350000000     0.667460000000     0.995110000000     2.41747    
In13     In     0.830530000000     0.166110000000     0.729950000000     2.41304    
In14     In     0.833430000000     0.823250000000     0.744580000000     2.42692    
In15     In     0.184640000000     0.823670000000     0.744100000000     2.42038    
In16     In     0.181160000000     0.167300000000     0.732940000000     2.42404    
N1       N      0.194360000000     0.039800000000     0.234280000000    -0.174588   
N2       N      0.195750000000     0.951910000000     0.238860000000    -0.176731   
N3       N      0.250230000000     0.940540000000     0.336000000000    -0.0849575  
N4       N      0.054210000000     0.815710000000     0.245540000000    -0.174141   
N5       N      0.964430000000     0.815260000000     0.244390000000    -0.17542    
N6       N      0.947950000000     0.758550000000     0.150190000000    -0.0850503  
N7       N      0.820240000000     0.950390000000     0.234620000000    -0.175754   
N8       N      0.817320000000     0.038050000000     0.228770000000    -0.177362   
N9       N      0.833720000000     0.048570000000     0.121190000000    -0.08681    
N10      N      0.960590000000     0.175600000000     0.239650000000    -0.174973   
N11      N      0.050300000000     0.173100000000     0.240010000000    -0.176015   
N12      N      0.066050000000     0.105550000000     0.328920000000    -0.0875451  
N13      N      0.737730000000     0.723190000000     0.400150000000    -0.173945   
N14      N      0.774580000000     0.764350000000     0.336350000000    -0.1772     
N15      N      0.673410000000     0.803730000000     0.288910000000    -0.0852446  
N16      N      0.777980000000     0.762770000000     0.153290000000    -0.17338    
N17      N      0.741060000000     0.722620000000     0.089170000000    -0.177031   
N18      N      0.814020000000     0.628960000000     0.086160000000    -0.0847782  
N19      N      0.776480000000     0.228320000000     0.320320000000    -0.17429    
N20      N      0.740250000000     0.268650000000     0.384250000000    -0.175464   
N21      N      0.824890000000     0.350980000000     0.398870000000    -0.0844381  
N22      N      0.776880000000     0.222690000000     0.134230000000    -0.174228   
N23      N      0.741970000000     0.265710000000     0.070000000000    -0.174961   
N24      N      0.834810000000     0.254640000000     0.002140000000    -0.0836118  
N25      N      0.695910000000     0.452320000000     0.481550000000    -0.176097   
N26      N      0.694720000000     0.540130000000     0.984110000000    -0.17653    
N27      N      0.688770000000     0.561920000000     0.376820000000    -0.0872089  
N28      N      0.278920000000     0.719500000000     0.399650000000    -0.173647   
N29      N      0.242710000000     0.761620000000     0.335490000000    -0.176563   
N30      N      0.344440000000     0.789390000000     0.283830000000    -0.0846926  
N31      N      0.240070000000     0.766910000000     0.151190000000    -0.174078   
N32      N      0.279060000000     0.727700000000     0.087970000000    -0.177322   
N33      N      0.362790000000     0.809230000000     0.067000000000    -0.0849463  
N34      N      0.463190000000     0.675710000000     0.004300000000    -0.173251   
N35      N      0.552920000000     0.677860000000     0.503960000000    -0.175388   
N36      N      0.567230000000     0.777100000000     0.445990000000    -0.0831217  
N37      N      0.239880000000     0.225840000000     0.324100000000    -0.175463   
N38      N      0.279490000000     0.264030000000     0.388020000000    -0.177239   
N39      N      0.389420000000     0.218000000000     0.376570000000    -0.086217   
N40      N      0.273720000000     0.265080000000     0.074510000000    -0.174241   
N41      N      0.233740000000     0.226590000000     0.138250000000    -0.176222   
N42      N      0.159390000000     0.314490000000     0.164250000000    -0.0863419  
N43      N      0.553530000000     0.311900000000     0.974740000000    -0.175908   
N44      N      0.463970000000     0.312990000000     0.479380000000    -0.175846   
N45      N      0.451280000000     0.239500000000     0.064240000000    -0.0851813  
N46      N      0.322370000000     0.449730000000     0.986750000000    -0.175333   
N47      N      0.320930000000     0.537670000000     0.488780000000    -0.176081   
N48      N      0.291560000000     0.558380000000     0.384470000000    -0.0877492  
N49      N      0.194360000000     0.039800000000     0.734280000000    -0.174605   
N50      N      0.195750000000     0.951910000000     0.738860000000    -0.176753   
N51      N      0.250230000000     0.940540000000     0.836000000000    -0.0851204  
N52      N      0.054210000000     0.815710000000     0.745540000000    -0.174135   
N53      N      0.964430000000     0.815260000000     0.744390000000    -0.175439   
N54      N      0.947950000000     0.758540000000     0.650190000000    -0.0852119  
N55      N      0.820240000000     0.950390000000     0.734620000000    -0.175769   
N56      N      0.817320000000     0.038050000000     0.728770000000    -0.17738    
N57      N      0.833720000000     0.048570000000     0.621190000000    -0.0870208  
N58      N      0.960590000000     0.175600000000     0.739650000000    -0.174994   
N59      N      0.050300000000     0.173100000000     0.740010000000    -0.17603    
N60      N      0.066050000000     0.105550000000     0.828920000000    -0.0877022  
N61      N      0.737730000000     0.723190000000     0.900150000000    -0.173945   
N62      N      0.774580000000     0.764350000000     0.836350000000    -0.177172   
N63      N      0.673410000000     0.803730000000     0.788910000000    -0.0853199  
N64      N      0.777980000000     0.762770000000     0.653290000000    -0.173383   
N65      N      0.741060000000     0.722620000000     0.589170000000    -0.177178   
N66      N      0.814020000000     0.628960000000     0.586170000000    -0.0850375  
N67      N      0.776480000000     0.228320000000     0.820310000000    -0.174378   
N68      N      0.740250000000     0.268650000000     0.884250000000    -0.175534   
N69      N      0.824890000000     0.350980000000     0.898870000000    -0.0846903  
N70      N      0.776880000000     0.222680000000     0.634230000000    -0.17428    
N71      N      0.741970000000     0.265710000000     0.570000000000    -0.175026   
N72      N      0.834810000000     0.254640000000     0.502140000000    -0.084127   
N73      N      0.695910000000     0.452320000000     0.981550000000    -0.176641   
N74      N      0.694720000000     0.540130000000     0.484110000000    -0.176002   
N75      N      0.688760000000     0.561920000000     0.876830000000    -0.0873032  
N76      N      0.278920000000     0.719500000000     0.899650000000    -0.173674   
N77      N      0.242710000000     0.761620000000     0.835490000000    -0.176564   
N78      N      0.344440000000     0.789390000000     0.783830000000    -0.0847581  
N79      N      0.240070000000     0.766910000000     0.651190000000    -0.174134   
N80      N      0.279060000000     0.727700000000     0.587970000000    -0.17748    
N81      N      0.362790000000     0.809230000000     0.567000000000    -0.085299   
N82      N      0.463190000000     0.675710000000     0.504300000000    -0.173841   
N83      N      0.552920000000     0.677860000000     0.003960000000    -0.1748     
N84      N      0.567230000000     0.777100000000     0.945990000000    -0.0833725  
N85      N      0.239880000000     0.225840000000     0.824100000000    -0.175473   
N86      N      0.279500000000     0.264030000000     0.888020000000    -0.177287   
N87      N      0.389420000000     0.218000000000     0.876570000000    -0.0864074  
N88      N      0.273720000000     0.265080000000     0.574510000000    -0.174382   
N89      N      0.233740000000     0.226590000000     0.638250000000    -0.176227   
N90      N      0.159390000000     0.314490000000     0.664250000000    -0.0864584  
N91      N      0.553530000000     0.311900000000     0.474740000000    -0.175032   
N92      N      0.463980000000     0.312990000000     0.979380000000    -0.176286   
N93      N      0.451280000000     0.239500000000     0.564240000000    -0.085388   
N94      N      0.322370000000     0.449730000000     0.486750000000    -0.17476    
N95      N      0.320930000000     0.537670000000     0.988780000000    -0.176597   
N96      N      0.291560000000     0.558380000000     0.884470000000    -0.0878396  
O1       O      0.284280000000     0.320790000000     0.031960000000    -0.493749   
O2       O      0.322940000000     0.266470000000     0.024370000000    -0.486314   
O3       O      0.276820000000     0.308840000000     0.440950000000    -0.497798   
O4       O      0.317070000000     0.385960000000     0.455080000000    -0.492652   
O5       O      0.397590000000     0.299550000000     0.007620000000    -0.480879   
O6       O      0.336710000000     0.384720000000     0.014610000000    -0.493969   
O7       O      0.335580000000     0.277640000000     0.430970000000    -0.498607   
O8       O      0.398220000000     0.335940000000     0.455680000000    -0.49828    
O9       O      0.274670000000     0.686560000000     0.459900000000    -0.494408   
O10      O      0.336810000000     0.695340000000     0.435880000000    -0.483538   
O11      O      0.329880000000     0.719950000000     0.039350000000    -0.499333   
O12      O      0.328790000000     0.599710000000     0.023000000000    -0.486086   
O13      O      0.396400000000     0.699040000000     0.483700000000    -0.474898   
O14      O      0.322000000000     0.605020000000     0.461710000000    -0.49313    
O15      O      0.282530000000     0.672690000000     0.044180000000    -0.494131   
O16      O      0.398620000000     0.643630000000     0.018600000000    -0.493091   
O17      O      0.740570000000     0.291310000000     0.006370000000    -0.487897   
O18      O      0.685640000000     0.302160000000     0.040830000000    -0.480968   
O19      O      0.686100000000     0.274290000000     0.430070000000    -0.499509   
O20      O      0.617440000000     0.338190000000     0.451190000000    -0.498586   
O21      O      0.694340000000     0.386400000000     0.010580000000    -0.498538   
O22      O      0.621130000000     0.293820000000     0.997610000000    -0.487415   
O23      O      0.736760000000     0.318770000000     0.432900000000    -0.485832   
O24      O      0.688810000000     0.389530000000     0.449050000000    -0.493012   
O25      O      0.735540000000     0.671270000000     0.041760000000    -0.489832   
O26      O      0.688460000000     0.719120000000     0.041160000000    -0.503299   
O27      O      0.741640000000     0.686420000000     0.458530000000    -0.494813   
O28      O      0.686500000000     0.607720000000     0.458560000000    -0.496323   
O29      O      0.619830000000     0.701490000000     0.983720000000    -0.477614   
O30      O      0.692780000000     0.601470000000     0.019840000000    -0.486556   
O31      O      0.679610000000     0.702150000000     0.436800000000    -0.484013   
O32      O      0.618150000000     0.645970000000     0.518080000000    -0.498099   
O33      O      0.774480000000     0.198010000000     0.197730000000    -0.495429   
O34      O      0.831910000000     0.187680000000     0.166300000000    -0.481107   
O35      O      0.777200000000     0.176320000000     0.273760000000    -0.48789    
O36      O      0.816710000000     0.102790000000     0.258940000000    -0.494659   
O37      O      0.895210000000     0.194140000000     0.212230000000    -0.485424   
O38      O      0.826260000000     0.102980000000     0.198120000000    -0.497171   
O39      O      0.829880000000     0.219030000000     0.274650000000    -0.499021   
O40      O      0.894490000000     0.151570000000     0.260210000000    -0.497882   
O41      O      0.828010000000     0.767820000000     0.203110000000    -0.486726   
O42      O      0.783280000000     0.818040000000     0.196280000000    -0.489579   
O43      O      0.834220000000     0.781740000000     0.299560000000    -0.499411   
O44      O      0.899570000000     0.833920000000     0.272120000000    -0.496406   
O45      O      0.833310000000     0.884510000000     0.209510000000    -0.497896   
O46      O      0.896830000000     0.803620000000     0.217400000000    -0.483773   
O47      O      0.774670000000     0.807100000000     0.281140000000    -0.496907   
O48      O      0.819490000000     0.888130000000     0.269910000000    -0.49893    
O49      O      0.183060000000     0.783390000000     0.299870000000    -0.496252   
O50      O      0.243660000000     0.803100000000     0.279430000000    -0.492745   
O51      O      0.190700000000     0.769400000000     0.201130000000    -0.488655   
O52      O      0.120430000000     0.803080000000     0.217970000000    -0.487231   
O53      O      0.205180000000     0.886980000000     0.269590000000    -0.492014   
O54      O      0.119620000000     0.834430000000     0.272520000000    -0.494017   
O55      O      0.232920000000     0.821560000000     0.194620000000    -0.493066   
O56      O      0.177450000000     0.887150000000     0.213120000000    -0.500985   
O57      O      0.188670000000     0.223580000000     0.191870000000    -0.491613   
O58      O      0.225150000000     0.169190000000     0.179660000000    -0.495971   
O59      O      0.181090000000     0.211930000000     0.284840000000    -0.496056   
O60      O      0.115060000000     0.187070000000     0.209660000000    -0.490456   
O61      O      0.174160000000     0.102570000000     0.204820000000    -0.496078   
O62      O      0.117780000000     0.153930000000     0.263370000000    -0.493004   
O63      O      0.239770000000     0.181800000000     0.270890000000    -0.496675   
O64      O      0.204030000000     0.105780000000     0.260660000000    -0.492437   
O65      O      0.284280000000     0.320790000000     0.531960000000    -0.495036   
O66      O      0.322930000000     0.266470000000     0.524370000000    -0.487571   
O67      O      0.276820000000     0.308840000000     0.940950000000    -0.497582   
O68      O      0.317070000000     0.385960000000     0.955080000000    -0.491811   
O69      O      0.397590000000     0.299550000000     0.507620000000    -0.483181   
O70      O      0.336710000000     0.384720000000     0.514610000000    -0.49636    
O71      O      0.335580000000     0.277640000000     0.930980000000    -0.498475   
O72      O      0.398220000000     0.335940000000     0.955680000000    -0.497683   
O73      O      0.274670000000     0.686560000000     0.959900000000    -0.494354   
O74      O      0.336810000000     0.695340000000     0.935880000000    -0.483166   
O75      O      0.329880000000     0.719940000000     0.539350000000    -0.500776   
O76      O      0.328780000000     0.599720000000     0.523000000000    -0.488445   
O77      O      0.396400000000     0.699040000000     0.983700000000    -0.476013   
O78      O      0.322000000000     0.605020000000     0.961710000000    -0.49239    
O79      O      0.282530000000     0.672690000000     0.544180000000    -0.49534    
O80      O      0.398620000000     0.643630000000     0.518600000000    -0.493668   
O81      O      0.740570000000     0.291310000000     0.506370000000    -0.489118   
O82      O      0.685640000000     0.302160000000     0.540830000000    -0.482079   
O83      O      0.686100000000     0.274290000000     0.930070000000    -0.499444   
O84      O      0.617440000000     0.338190000000     0.951200000000    -0.498559   
O85      O      0.694340000000     0.386400000000     0.510580000000    -0.500733   
O86      O      0.621130000000     0.293820000000     0.497610000000    -0.486816   
O87      O      0.736750000000     0.318770000000     0.932900000000    -0.486009   
O88      O      0.688810000000     0.389530000000     0.949060000000    -0.492524   
O89      O      0.735530000000     0.671270000000     0.541760000000    -0.491151   
O90      O      0.688460000000     0.719120000000     0.541160000000    -0.504615   
O91      O      0.741640000000     0.686420000000     0.958530000000    -0.494806   
O92      O      0.686500000000     0.607720000000     0.958560000000    -0.495649   
O93      O      0.619840000000     0.701490000000     0.483720000000    -0.476528   
O94      O      0.692780000000     0.601470000000     0.519840000000    -0.488918   
O95      O      0.679610000000     0.702150000000     0.936800000000    -0.483651   
O96      O      0.618150000000     0.645970000000     0.018080000000    -0.497452   
O97      O      0.774480000000     0.198010000000     0.697730000000    -0.495531   
O98      O      0.831910000000     0.187680000000     0.666300000000    -0.481302   
O99      O      0.777200000000     0.176320000000     0.773760000000    -0.4879     
O100     O      0.816710000000     0.102790000000     0.758940000000    -0.494655   
O101     O      0.895210000000     0.194140000000     0.712230000000    -0.485507   
O102     O      0.826260000000     0.102980000000     0.698120000000    -0.497289   
O103     O      0.829880000000     0.219030000000     0.774650000000    -0.498922   
O104     O      0.894490000000     0.151570000000     0.760210000000    -0.497874   
O105     O      0.828010000000     0.767820000000     0.703120000000    -0.486791   
O106     O      0.783280000000     0.818040000000     0.696280000000    -0.489619   
O107     O      0.834220000000     0.781740000000     0.799560000000    -0.499487   
O108     O      0.899560000000     0.833920000000     0.772120000000    -0.496524   
O109     O      0.833310000000     0.884510000000     0.709510000000    -0.497982   
O110     O      0.896830000000     0.803620000000     0.717400000000    -0.483805   
O111     O      0.774670000000     0.807100000000     0.781140000000    -0.497018   
O112     O      0.819490000000     0.888130000000     0.769910000000    -0.499004   
O113     O      0.183060000000     0.783390000000     0.799880000000    -0.496182   
O114     O      0.243660000000     0.803100000000     0.779430000000    -0.492742   
O115     O      0.190700000000     0.769400000000     0.701130000000    -0.488738   
O116     O      0.120430000000     0.803080000000     0.717970000000    -0.487279   
O117     O      0.205180000000     0.886980000000     0.769590000000    -0.492002   
O118     O      0.119620000000     0.834430000000     0.772520000000    -0.494068   
O119     O      0.232920000000     0.821550000000     0.694620000000    -0.493222   
O120     O      0.177450000000     0.887150000000     0.713110000000    -0.500718   
O121     O      0.188670000000     0.223580000000     0.691870000000    -0.491634   
O122     O      0.225150000000     0.169190000000     0.679660000000    -0.496015   
O123     O      0.181090000000     0.211930000000     0.784850000000    -0.496009   
O124     O      0.115060000000     0.187070000000     0.709660000000    -0.490509   
O125     O      0.174160000000     0.102570000000     0.704820000000    -0.496133   
O126     O      0.117780000000     0.153930000000     0.763370000000    -0.493036   
O127     O      0.239770000000     0.181800000000     0.770890000000    -0.496701   
O128     O      0.204030000000     0.105780000000     0.760660000000    -0.492476   


