data_structure

_audit_creation_method RASPA-1.0
_audit_creation_date 2023-5-23
_audit_author_name 'Poobodin Mano'

_cell_length_a    52.352
_cell_length_b    52.3523
_cell_length_c    52.3514
_cell_angle_alpha 89.9996
_cell_angle_beta  89.9998
_cell_angle_gamma 90.0009
_cell_volume      143482

_symmetry_cell_setting          triclinic
_symmetry_space_group_name_Hall 'P 1'
_symmetry_space_group_name_H-M  'P 1'
_symmetry_Int_Tables_number     1

_symmetry_equiv_pos_as_xyz 'x,y,z'

loop_
_atom_site_label
_atom_site_type_symbol
_atom_site_fract_x
_atom_site_fract_y
_atom_site_fract_z
_atom_site_charge
C1       C      0.557450000000     0.755540000000     0.904470000000     0.409628   
C2       C      0.645190000000     0.721410000000     0.898990000000     0.407992   
C3       C      0.618030000000     0.791830000000     0.871850000000     0.408355   
C4       C      0.612580000000     0.757670000000     0.959580000000     0.409275   
C5       C      0.557530000000     0.755420000000     0.120110000000     0.409217   
C6       C      0.645260000000     0.721280000000     0.125560000000     0.408579   
C7       C      0.612630000000     0.757600000000     0.064980000000     0.408906   
C8       C      0.618120000000     0.791700000000     0.152720000000     0.408472   
C9       C      0.452050000000     0.755550000000     0.904480000000     0.408899   
C10      C      0.364310000000     0.721430000000     0.899030000000     0.408399   
C11      C      0.396950000000     0.757680000000     0.959610000000     0.409326   
C12      C      0.391460000000     0.791840000000     0.871880000000     0.4081     
C13      C      0.452130000000     0.755430000000     0.120120000000     0.40909    
C14      C      0.364390000000     0.721300000000     0.125600000000     0.407931   
C15      C      0.391550000000     0.791720000000     0.152760000000     0.408243   
C16      C      0.396990000000     0.757620000000     0.065010000000     0.409405   
C17      C      0.753680000000     0.453910000000     0.904340000000     0.409067   
C18      C      0.719550000000     0.366180000000     0.898820000000     0.4083     
C19      C      0.789960000000     0.393340000000     0.871670000000     0.408386   
C20      C      0.755860000000     0.398770000000     0.959420000000     0.409054   
C21      C      0.753760000000     0.453800000000     0.119970000000     0.409196   
C22      C      0.719640000000     0.366060000000     0.125390000000     0.408063   
C23      C      0.755900000000     0.398720000000     0.064820000000     0.40921    
C24      C      0.790060000000     0.393210000000     0.152550000000     0.407942   
C25      C      0.753660000000     0.559310000000     0.904420000000     0.409053   
C26      C      0.719530000000     0.647050000000     0.899000000000     0.408215   
C27      C      0.755840000000     0.614400000000     0.959570000000     0.409104   
C28      C      0.789950000000     0.619900000000     0.871830000000     0.408576   
C29      C      0.753760000000     0.559200000000     0.120060000000     0.408956   
C30      C      0.719620000000     0.646930000000     0.125570000000     0.408219   
C31      C      0.790040000000     0.619780000000     0.152710000000     0.407897   
C32      C      0.755890000000     0.614340000000     0.064970000000     0.409414   
C33      C      0.557550000000     0.898700000000     0.263360000000     0.409315   
C34      C      0.645280000000     0.893220000000     0.297480000000     0.408583   
C35      C      0.618130000000     0.866060000000     0.227070000000     0.40792    
C36      C      0.612670000000     0.953800000000     0.261150000000     0.409008   
C37      C      0.557560000000     0.114330000000     0.263190000000     0.409438   
C38      C      0.645300000000     0.119790000000     0.297310000000     0.408161   
C39      C      0.612670000000     0.059200000000     0.261060000000     0.408957   
C40      C      0.618150000000     0.146930000000     0.226890000000     0.408068   
C41      C      0.452160000000     0.114340000000     0.263210000000     0.409185   
C42      C      0.364420000000     0.119810000000     0.297350000000     0.408159   
C43      C      0.391570000000     0.146950000000     0.226930000000     0.408233   
C44      C      0.397050000000     0.059230000000     0.261100000000     0.40886    
C45      C      0.452150000000     0.898710000000     0.263380000000     0.409422   
C46      C      0.364410000000     0.893240000000     0.297510000000     0.408427   
C47      C      0.397030000000     0.953820000000     0.261190000000     0.409347   
C48      C      0.391560000000     0.866080000000     0.227110000000     0.408379   
C49      C      0.452060000000     0.257710000000     0.904310000000     0.409102   
C50      C      0.364320000000     0.291840000000     0.898850000000     0.407991   
C51      C      0.391470000000     0.221430000000     0.871690000000     0.408253   
C52      C      0.396960000000     0.255530000000     0.959430000000     0.409256   
C53      C      0.452140000000     0.257590000000     0.119940000000     0.409329   
C54      C      0.364410000000     0.291720000000     0.125430000000     0.408488   
C55      C      0.397010000000     0.255460000000     0.064840000000     0.409234   
C56      C      0.391560000000     0.221300000000     0.152570000000     0.408227   
C57      C      0.557460000000     0.257700000000     0.904290000000     0.409342   
C58      C      0.645190000000     0.291830000000     0.898810000000     0.408193   
C59      C      0.612590000000     0.255510000000     0.959390000000     0.409381   
C60      C      0.618040000000     0.221420000000     0.871650000000     0.408527   
C61      C      0.557540000000     0.257580000000     0.119930000000     0.409111   
C62      C      0.645280000000     0.291700000000     0.125380000000     0.408147   
C63      C      0.618140000000     0.221280000000     0.152530000000     0.408403   
C64      C      0.612640000000     0.255450000000     0.064800000000     0.409323   
C65      C      0.112670000000     0.453820000000     0.263260000000     0.409384   
C66      C      0.118140000000     0.366080000000     0.297350000000     0.408362   
C67      C      0.057560000000     0.398710000000     0.261060000000     0.408844   
C68      C      0.145290000000     0.393240000000     0.226940000000     0.408451   
C69      C      0.897030000000     0.453800000000     0.263220000000     0.40921    
C70      C      0.891570000000     0.366050000000     0.297300000000     0.407819   
C71      C      0.864420000000     0.393220000000     0.226890000000     0.408425   
C72      C      0.952150000000     0.398700000000     0.261030000000     0.408846   
C73      C      0.897030000000     0.559200000000     0.263310000000     0.409297   
C74      C      0.891550000000     0.646930000000     0.297480000000     0.40834    
C75      C      0.952140000000     0.614330000000     0.261200000000     0.409392   
C76      C      0.864400000000     0.619790000000     0.227060000000     0.408276   
C77      C      0.112650000000     0.559220000000     0.263350000000     0.408968   
C78      C      0.118120000000     0.646950000000     0.297520000000     0.408101   
C79      C      0.145280000000     0.619810000000     0.227100000000     0.408071   
C80      C      0.057540000000     0.614340000000     0.261220000000     0.409083   
C81      C      0.255830000000     0.559330000000     0.904430000000     0.409085   
C82      C      0.289960000000     0.647070000000     0.899010000000     0.408367   
C83      C      0.219540000000     0.619920000000     0.871850000000     0.408326   
C84      C      0.253690000000     0.614410000000     0.959580000000     0.409234   
C85      C      0.255910000000     0.559220000000     0.120070000000     0.409054   
C86      C      0.290040000000     0.646950000000     0.125580000000     0.408041   
C87      C      0.253730000000     0.614360000000     0.064990000000     0.409082   
C88      C      0.219620000000     0.619790000000     0.152730000000     0.408155   
C89      C      0.255930000000     0.453820000000     0.119990000000     0.40913    
C90      C      0.290060000000     0.366080000000     0.125420000000     0.408094   
C91      C      0.219650000000     0.393230000000     0.152580000000     0.408259   
C92      C      0.253750000000     0.398730000000     0.064840000000     0.409331   
C93      C      0.255830000000     0.453930000000     0.904350000000     0.409034   
C94      C      0.289960000000     0.366190000000     0.898840000000     0.408097   
C95      C      0.253700000000     0.398790000000     0.959440000000     0.40889    
C96      C      0.219550000000     0.393350000000     0.871710000000     0.408549   
C97      C      0.896950000000     0.755510000000     0.564980000000     0.408851   
C98      C      0.891470000000     0.721410000000     0.652720000000     0.407896   
C99      C      0.952050000000     0.757700000000     0.620100000000     0.409282   
C100     C      0.864320000000     0.791830000000     0.625560000000     0.408071   
C101     C      0.112590000000     0.755520000000     0.565010000000     0.409183   
C102     C      0.118030000000     0.721430000000     0.652750000000     0.408272   
C103     C      0.145190000000     0.791840000000     0.625590000000     0.408386   
C104     C      0.057460000000     0.757710000000     0.620110000000     0.409124   
C105     C      0.897000000000     0.755440000000     0.459580000000     0.409348   
C106     C      0.891550000000     0.721280000000     0.371840000000     0.408343   
C107     C      0.864390000000     0.791700000000     0.398990000000     0.408365   
C108     C      0.952130000000     0.757570000000     0.404470000000     0.40899    
C109     C      0.112630000000     0.755470000000     0.459600000000     0.409421   
C110     C      0.118120000000     0.721300000000     0.371870000000     0.408161   
C111     C      0.057530000000     0.757590000000     0.404480000000     0.40915    
C112     C      0.145270000000     0.791720000000     0.399020000000     0.408388   
C113     C      0.112560000000     0.453920000000     0.761100000000     0.409293   
C114     C      0.118040000000     0.366190000000     0.726930000000     0.407974   
C115     C      0.145190000000     0.393340000000     0.797350000000     0.4083     
C116     C      0.057450000000     0.398800000000     0.763210000000     0.409196   
C117     C      0.896940000000     0.453910000000     0.761060000000     0.409394   
C118     C      0.891460000000     0.366180000000     0.726890000000     0.408592   
C119     C      0.952050000000     0.398790000000     0.763190000000     0.409569   
C120     C      0.864310000000     0.393320000000     0.797310000000     0.408392   
C121     C      0.896920000000     0.559310000000     0.761150000000     0.409367   
C122     C      0.891460000000     0.647050000000     0.727070000000     0.407953   
C123     C      0.864300000000     0.619890000000     0.797470000000     0.407873   
C124     C      0.952040000000     0.614420000000     0.763360000000     0.409105   
C125     C      0.112560000000     0.559320000000     0.761190000000     0.409382   
C126     C      0.118020000000     0.647070000000     0.727100000000     0.408371   
C127     C      0.057440000000     0.614430000000     0.763370000000     0.409219   
C128     C      0.145170000000     0.619900000000     0.797510000000     0.40856    
C129     C      0.255910000000     0.114360000000     0.459440000000     0.40904    
C130     C      0.290060000000     0.119800000000     0.371700000000     0.408003   
C131     C      0.253770000000     0.059220000000     0.404350000000     0.409176   
C132     C      0.219640000000     0.146960000000     0.398840000000     0.407936   
C133     C      0.255890000000     0.898740000000     0.459580000000     0.409235   
C134     C      0.290040000000     0.893230000000     0.371850000000     0.408324   
C135     C      0.219620000000     0.866080000000     0.399010000000     0.408473   
C136     C      0.253750000000     0.953820000000     0.404430000000     0.409082   
C137     C      0.255850000000     0.898780000000     0.564990000000     0.409086   
C138     C      0.289950000000     0.893350000000     0.652730000000     0.407843   
C139     C      0.253680000000     0.953930000000     0.620070000000     0.40915    
C140     C      0.219540000000     0.866190000000     0.625580000000     0.408017   
C141     C      0.255850000000     0.114420000000     0.564840000000     0.409279   
C142     C      0.289960000000     0.119920000000     0.652580000000     0.408489   
C143     C      0.219550000000     0.147070000000     0.625410000000     0.408341   
C144     C      0.253670000000     0.059330000000     0.619990000000     0.409177   
C145     C      0.112650000000     0.257610000000     0.459430000000     0.408882   
C146     C      0.118130000000     0.291720000000     0.371690000000     0.408337   
C147     C      0.145290000000     0.221310000000     0.398850000000     0.408098   
C148     C      0.057550000000     0.255430000000     0.404310000000     0.4088     
C149     C      0.897010000000     0.257600000000     0.459400000000     0.409258   
C150     C      0.891570000000     0.291700000000     0.371650000000     0.408377   
C151     C      0.952150000000     0.255420000000     0.404300000000     0.409503   
C152     C      0.864410000000     0.221280000000     0.398810000000     0.408036   
C153     C      0.896970000000     0.257660000000     0.564800000000     0.409314   
C154     C      0.891470000000     0.291830000000     0.652530000000     0.407977   
C155     C      0.864320000000     0.221410000000     0.625380000000     0.408007   
C156     C      0.952060000000     0.255540000000     0.619930000000     0.409207   
C157     C      0.112590000000     0.257680000000     0.564840000000     0.409285   
C158     C      0.118040000000     0.291840000000     0.652570000000     0.408712   
C159     C      0.057460000000     0.255550000000     0.619940000000     0.40899    
C160     C      0.145200000000     0.221430000000     0.625430000000     0.408063   
C161     C      0.753690000000     0.898770000000     0.564980000000     0.408906   
C162     C      0.719540000000     0.893330000000     0.652710000000     0.408364   
C163     C      0.789960000000     0.866170000000     0.625570000000     0.408214   
C164     C      0.755830000000     0.953910000000     0.620060000000     0.409181   
C165     C      0.753710000000     0.114390000000     0.564820000000     0.408811   
C166     C      0.719550000000     0.119900000000     0.652550000000     0.408183   
C167     C      0.755840000000     0.059310000000     0.619970000000     0.408905   
C168     C      0.789970000000     0.147050000000     0.625400000000     0.408365   
C169     C      0.753750000000     0.114340000000     0.459420000000     0.408807   
C170     C      0.719650000000     0.119770000000     0.371670000000     0.408382   
C171     C      0.790060000000     0.146930000000     0.398830000000     0.408499   
C172     C      0.755920000000     0.059200000000     0.404340000000     0.409079   
C173     C      0.753740000000     0.898700000000     0.459570000000     0.409268   
C174     C      0.719630000000     0.893210000000     0.371830000000     0.407972   
C175     C      0.755920000000     0.953800000000     0.404430000000     0.409214   
C176     C      0.790050000000     0.866060000000     0.399000000000     0.408106   
C177     C      0.452040000000     0.898800000000     0.761220000000     0.40937    
C178     C      0.364300000000     0.893340000000     0.727100000000     0.40817    
C179     C      0.391450000000     0.866200000000     0.797520000000     0.408445   
C180     C      0.396930000000     0.953920000000     0.763350000000     0.409103   
C181     C      0.452050000000     0.114430000000     0.761060000000     0.408909   
C182     C      0.364310000000     0.119900000000     0.726940000000     0.408116   
C183     C      0.396920000000     0.059320000000     0.763260000000     0.409289   
C184     C      0.391470000000     0.147070000000     0.797350000000     0.408611   
C185     C      0.557440000000     0.898790000000     0.761200000000     0.408957   
C186     C      0.645180000000     0.893320000000     0.727060000000     0.408378   
C187     C      0.612550000000     0.953910000000     0.763310000000     0.409467   
C188     C      0.618030000000     0.866180000000     0.797480000000     0.408018   
C189     C      0.557450000000     0.114420000000     0.761030000000     0.409011   
C190     C      0.645180000000     0.119890000000     0.726890000000     0.408433   
C191     C      0.618030000000     0.147060000000     0.797300000000     0.408035   
C192     C      0.612570000000     0.059310000000     0.763220000000     0.409211   
C193     C      0.605280000000     0.993310000000     0.742440000000     0.0331807  
C194     C      0.622270000000     0.993240000000     0.784210000000     0.0333178  
C195     C      0.622280000000     0.020010000000     0.784180000000     0.0333403  
C196     C      0.605290000000     0.019880000000     0.742420000000     0.0333473  
C197     C      0.491350000000     0.124130000000     0.740110000000     0.0333888  
C198     C      0.491470000000     0.107170000000     0.781880000000     0.033349   
C199     C      0.518040000000     0.107160000000     0.781880000000     0.0331321  
C200     C      0.518130000000     0.124130000000     0.740100000000     0.0333078  
C201     C      0.404200000000     0.993320000000     0.742480000000     0.0332392  
C202     C      0.387220000000     0.993250000000     0.784250000000     0.0333806  
C203     C      0.387210000000     0.020030000000     0.784230000000     0.0333511  
C204     C      0.404200000000     0.019890000000     0.742460000000     0.033218   
C205     C      0.491460000000     0.906080000000     0.782040000000     0.0332133  
C206     C      0.491350000000     0.889070000000     0.740290000000     0.0334203  
C207     C      0.518120000000     0.889070000000     0.740280000000     0.0333266  
C208     C      0.518030000000     0.906080000000     0.782030000000     0.0332976  
C209     C      0.735090000000     0.019790000000     0.411640000000     0.0331978  
C210     C      0.776860000000     0.019880000000     0.394660000000     0.033346   
C211     C      0.776860000000     0.993100000000     0.394690000000     0.0333891  
C212     C      0.735090000000     0.993220000000     0.411660000000     0.0332529  
C213     C      0.676630000000     0.128290000000     0.665080000000     0.0333883  
C214     C      0.707620000000     0.117970000000     0.696160000000     0.0328736  
C215     C      0.688790000000     0.117970000000     0.714970000000     0.0331351  
C216     C      0.657720000000     0.128290000000     0.683980000000     0.0333342  
C217     C      0.732790000000     0.124090000000     0.525500000000     0.0333557  
C218     C      0.774560000000     0.107100000000     0.525420000000     0.0332227  
C219     C      0.774570000000     0.107090000000     0.498850000000     0.033254   
C220     C      0.732800000000     0.124080000000     0.498720000000     0.0332663  
C221     C      0.707610000000     0.895280000000     0.696320000000     0.0330333  
C222     C      0.676630000000     0.884910000000     0.665250000000     0.0333356  
C223     C      0.657720000000     0.884910000000     0.684150000000     0.0333221  
C224     C      0.688790000000     0.895280000000     0.715140000000     0.0329875  
C225     C      0.774540000000     0.906020000000     0.525570000000     0.0331647  
C226     C      0.732780000000     0.889030000000     0.525660000000     0.0334166  
C227     C      0.732790000000     0.889010000000     0.498880000000     0.0332946  
C228     C      0.774550000000     0.906000000000     0.498990000000     0.0333786  
C229     C      0.776760000000     0.993220000000     0.629750000000     0.0334335  
C230     C      0.735010000000     0.993320000000     0.612750000000     0.0333316  
C231     C      0.735010000000     0.019890000000     0.612730000000     0.0332568  
C232     C      0.776770000000     0.020000000000     0.629730000000     0.0332276  
C233     C      0.851780000000     0.178500000000     0.633810000000     0.0333378  
C234     C      0.820720000000     0.209480000000     0.623430000000     0.0331239  
C235     C      0.801900000000     0.190660000000     0.623430000000     0.0329544  
C236     C      0.832880000000     0.159590000000     0.633820000000     0.0332759  
C237     C      0.991480000000     0.276370000000     0.612650000000     0.0332817  
C238     C      0.991370000000     0.234620000000     0.629660000000     0.0334298  
C239     C      0.018150000000     0.234620000000     0.629660000000     0.0332825  
C240     C      0.018050000000     0.276380000000     0.612660000000     0.0332244  
C241     C      0.851880000000     0.178370000000     0.390420000000     0.0333612  
C242     C      0.820810000000     0.209360000000     0.400740000000     0.0330519  
C243     C      0.801990000000     0.190540000000     0.400750000000     0.0329758  
C244     C      0.832970000000     0.159460000000     0.390420000000     0.0333737  
C245     C      0.904270000000     0.236790000000     0.498830000000     0.0331808  
C246     C      0.887280000000     0.278550000000     0.498690000000     0.0334638  
C247     C      0.887270000000     0.278570000000     0.525470000000     0.0333206  
C248     C      0.904260000000     0.236810000000     0.525400000000     0.0332766  
C249     C      0.991560000000     0.276250000000     0.411570000000     0.0333512  
C250     C      0.991460000000     0.234490000000     0.394590000000     0.0334053  
C251     C      0.018240000000     0.234490000000     0.394600000000     0.0333517  
C252     C      0.018130000000     0.276260000000     0.411570000000     0.0331512  
C253     C      0.105360000000     0.236810000000     0.498860000000     0.0332063  
C254     C      0.122340000000     0.278570000000     0.498740000000     0.0333938  
C255     C      0.122330000000     0.278590000000     0.525520000000     0.0333415  
C256     C      0.105340000000     0.236830000000     0.525430000000     0.033276   
C257     C      0.207620000000     0.190670000000     0.623470000000     0.0332211  
C258     C      0.176640000000     0.159610000000     0.633830000000     0.0333186  
C259     C      0.157740000000     0.178510000000     0.633830000000     0.0333231  
C260     C      0.188810000000     0.209500000000     0.623470000000     0.032851   
C261     C      0.301880000000     0.117970000000     0.696190000000     0.0329737  
C262     C      0.332870000000     0.128320000000     0.665120000000     0.0333834  
C263     C      0.351780000000     0.128310000000     0.684020000000     0.0332768  
C264     C      0.320710000000     0.117970000000     0.715010000000     0.033102   
C265     C      0.332860000000     0.884920000000     0.665280000000     0.0332357  
C266     C      0.301880000000     0.895310000000     0.696340000000     0.0331478  
C267     C      0.320690000000     0.895310000000     0.715170000000     0.0329139  
C268     C      0.351760000000     0.884920000000     0.684190000000     0.0333787  
C269     C      0.274510000000     0.993340000000     0.612770000000     0.0332117  
C270     C      0.232740000000     0.993250000000     0.629740000000     0.0333611  
C271     C      0.232740000000     0.020020000000     0.629720000000     0.0333401  
C272     C      0.274510000000     0.019910000000     0.612750000000     0.0332759  
C273     C      0.276800000000     0.889040000000     0.498910000000     0.0333797  
C274     C      0.235040000000     0.906030000000     0.498990000000     0.0332144  
C275     C      0.235030000000     0.906040000000     0.525560000000     0.0332379  
C276     C      0.276790000000     0.889050000000     0.525690000000     0.0333889  
C277     C      0.176730000000     0.159490000000     0.390430000000     0.0332584  
C278     C      0.207710000000     0.190560000000     0.400790000000     0.0330581  
C279     C      0.188890000000     0.209380000000     0.400790000000     0.0331013  
C280     C      0.157830000000     0.178400000000     0.390440000000     0.0333869  
C281     C      0.274590000000     0.019810000000     0.411660000000     0.0332776  
C282     C      0.232840000000     0.019910000000     0.394660000000     0.0334769  
C283     C      0.232830000000     0.993130000000     0.394680000000     0.0332985  
C284     C      0.274590000000     0.993240000000     0.411680000000     0.0332087  
C285     C      0.235060000000     0.107110000000     0.498850000000     0.0332879  
C286     C      0.276820000000     0.124100000000     0.498750000000     0.0334007  
C287     C      0.276810000000     0.124110000000     0.525530000000     0.0333044  
C288     C      0.235040000000     0.107130000000     0.525420000000     0.0332297  
C289     C      0.991460000000     0.607160000000     0.742530000000     0.0333181  
C290     C      0.991340000000     0.624130000000     0.784300000000     0.0333725  
C291     C      0.018120000000     0.624130000000     0.784310000000     0.0332593  
C292     C      0.018030000000     0.607160000000     0.742530000000     0.0332201  
C293     C      0.883070000000     0.353650000000     0.683970000000     0.0333492  
C294     C      0.893400000000     0.322570000000     0.714960000000     0.0330151  
C295     C      0.893400000000     0.303750000000     0.696140000000     0.0330158  
C296     C      0.883070000000     0.334740000000     0.665060000000     0.0333106  
C297     C      0.887220000000     0.493230000000     0.740160000000     0.0333989  
C298     C      0.904200000000     0.493300000000     0.781920000000     0.0334391  
C299     C      0.904200000000     0.519880000000     0.781950000000     0.0331427  
C300     C      0.887210000000     0.520010000000     0.740180000000     0.0333101  
C301     C      0.126440000000     0.353660000000     0.684020000000     0.0333829  
C302     C      0.116100000000     0.322590000000     0.715000000000     0.0330109  
C303     C      0.116100000000     0.303770000000     0.696180000000     0.0330507  
C304     C      0.126440000000     0.334760000000     0.665110000000     0.0332673  
C305     C      0.991350000000     0.389060000000     0.784120000000     0.0334574  
C306     C      0.991470000000     0.406080000000     0.742370000000     0.0331786  
C307     C      0.018040000000     0.406080000000     0.742380000000     0.0333246  
C308     C      0.018130000000     0.389070000000     0.784130000000     0.0333279  
C309     C      0.105280000000     0.493320000000     0.781970000000     0.0331904  
C310     C      0.122280000000     0.493250000000     0.740200000000     0.0332368  
C311     C      0.122280000000     0.520030000000     0.740230000000     0.0335196  
C312     C      0.105290000000     0.519890000000     0.781990000000     0.0332343  
C313     C      0.188880000000     0.803650000000     0.400980000000     0.0328711  
C314     C      0.157810000000     0.834630000000     0.390590000000     0.0333857  
C315     C      0.176710000000     0.853540000000     0.390590000000     0.0333135  
C316     C      0.207690000000     0.822480000000     0.400970000000     0.0331903  
C317     C      0.820790000000     0.803630000000     0.400940000000     0.0331222  
C318     C      0.851860000000     0.834610000000     0.390580000000     0.0332776  
C319     C      0.832950000000     0.853510000000     0.390580000000     0.0333701  
C320     C      0.801970000000     0.822450000000     0.400950000000     0.0330231  
C321     C      0.991440000000     0.778510000000     0.394740000000     0.033273   
C322     C      0.991540000000     0.736750000000     0.411750000000     0.0332818  
C323     C      0.018120000000     0.736750000000     0.411750000000     0.0332161  
C324     C      0.018220000000     0.778510000000     0.394750000000     0.0334223  
C325     C      0.188800000000     0.803770000000     0.623660000000     0.0330511  
C326     C      0.157720000000     0.834760000000     0.633990000000     0.0331852  
C327     C      0.176630000000     0.853660000000     0.633980000000     0.0334518  
C328     C      0.207620000000     0.822590000000     0.623660000000     0.0330198  
C329     C      0.116060000000     0.709500000000     0.696360000000     0.0329677  
C330     C      0.126450000000     0.678520000000     0.665290000000     0.0332781  
C331     C      0.126450000000     0.659610000000     0.684200000000     0.0334206  
C332     C      0.116060000000     0.690670000000     0.715180000000     0.0330987  
C333     C      0.105330000000     0.776330000000     0.525580000000     0.0333426  
C334     C      0.122320000000     0.734570000000     0.525710000000     0.0332773  
C335     C      0.122330000000     0.734560000000     0.498930000000     0.0334311  
C336     C      0.105340000000     0.776320000000     0.499010000000     0.0331858  
C337     C      0.820710000000     0.803750000000     0.623620000000     0.0329686  
C338     C      0.851780000000     0.834740000000     0.633970000000     0.0333074  
C339     C      0.832870000000     0.853640000000     0.633980000000     0.0333703  
C340     C      0.801890000000     0.822570000000     0.623630000000     0.0330951  
C341     C      0.893420000000     0.709480000000     0.696330000000     0.0329867  
C342     C      0.883040000000     0.678510000000     0.665250000000     0.0333127  
C343     C      0.883040000000     0.659600000000     0.684160000000     0.0333187  
C344     C      0.893420000000     0.690660000000     0.715140000000     0.0330815  
C345     C      0.887250000000     0.734550000000     0.525680000000     0.0333255  
C346     C      0.904240000000     0.776320000000     0.525550000000     0.0331846  
C347     C      0.904260000000     0.776300000000     0.498980000000     0.0332311  
C348     C      0.887270000000     0.734530000000     0.498900000000     0.0333865  
C349     C      0.991470000000     0.736870000000     0.612840000000     0.0332381  
C350     C      0.991360000000     0.778640000000     0.629810000000     0.0334263  
C351     C      0.018140000000     0.778640000000     0.629820000000     0.0333001  
C352     C      0.018040000000     0.736870000000     0.612840000000     0.0332074  
C353     C      0.176640000000     0.384930000000     0.859170000000     0.0334156  
C354     C      0.207620000000     0.395300000000     0.828100000000     0.0329627  
C355     C      0.188790000000     0.395300000000     0.809280000000     0.0331155  
C356     C      0.157730000000     0.384920000000     0.840260000000     0.0332968  
C357     C      0.274550000000     0.406040000000     0.998850000000     0.0331566  
C358     C      0.232790000000     0.389050000000     0.998760000000     0.0333756  
C359     C      0.232800000000     0.389030000000     0.025540000000     0.0333308  
C360     C      0.274560000000     0.406020000000     0.025420000000     0.0333706  
C361     C      0.235080000000     0.519810000000     0.112770000000     0.0331831  
C362     C      0.276850000000     0.519910000000     0.129750000000     0.0334453  
C363     C      0.276860000000     0.493130000000     0.129730000000     0.0332564  
C364     C      0.235090000000     0.493240000000     0.112750000000     0.033277   
C365     C      0.207610000000     0.617990000000     0.828250000000     0.0329942  
C366     C      0.176620000000     0.628310000000     0.859330000000     0.033302   
C367     C      0.157710000000     0.628300000000     0.840420000000     0.0333988  
C368     C      0.188780000000     0.617980000000     0.809430000000     0.0330989  
C369     C      0.276760000000     0.520020000000     0.894680000000     0.033373   
C370     C      0.235000000000     0.519910000000     0.911690000000     0.0331556  
C371     C      0.235000000000     0.493330000000     0.911660000000     0.033313   
C372     C      0.276760000000     0.493240000000     0.894660000000     0.0333751  
C373     C      0.274540000000     0.607120000000     0.998990000000     0.0332221  
C374     C      0.232770000000     0.624110000000     0.998910000000     0.0333131  
C375     C      0.232780000000     0.624100000000     0.025690000000     0.0333265  
C376     C      0.274550000000     0.607110000000     0.025560000000     0.0332323  
C377     C      0.157820000000     0.628230000000     0.184190000000     0.0334058  
C378     C      0.188880000000     0.617840000000     0.215160000000     0.0330601  
C379     C      0.207700000000     0.617840000000     0.196340000000     0.033079   
C380     C      0.176720000000     0.628220000000     0.165280000000     0.0332561  
C381     C      0.116190000000     0.690560000000     0.309450000000     0.033072   
C382     C      0.126520000000     0.659490000000     0.340430000000     0.0333895  
C383     C      0.126520000000     0.678390000000     0.359340000000     0.0333202  
C384     C      0.116190000000     0.709380000000     0.328270000000     0.0329915  
C385     C      0.883150000000     0.659460000000     0.340400000000     0.0331928  
C386     C      0.893490000000     0.690540000000     0.309410000000     0.0330307  
C387     C      0.893480000000     0.709360000000     0.328230000000     0.033017   
C388     C      0.883150000000     0.678370000000     0.359300000000     0.0334477  
C389     C      0.991450000000     0.624060000000     0.240280000000     0.033421   
C390     C      0.991550000000     0.607050000000     0.282030000000     0.0333499  
C391     C      0.018120000000     0.607050000000     0.282040000000     0.0331397  
C392     C      0.018230000000     0.624060000000     0.240280000000     0.0333049  
C393     C      0.893540000000     0.303630000000     0.328050000000     0.0330637  
C394     C      0.883150000000     0.334600000000     0.359110000000     0.033451   
C395     C      0.883150000000     0.353510000000     0.340210000000     0.0332493  
C396     C      0.893540000000     0.322450000000     0.309230000000     0.0330523  
C397     C      0.904310000000     0.493230000000     0.242420000000     0.0332905  
C398     C      0.887310000000     0.493100000000     0.284180000000     0.0332882  
C399     C      0.887310000000     0.519870000000     0.284200000000     0.0334241  
C400     C      0.904310000000     0.519810000000     0.242440000000     0.0332186  
C401     C      0.126550000000     0.353530000000     0.340250000000     0.0334067  
C402     C      0.116180000000     0.322470000000     0.309270000000     0.0330682  
C403     C      0.116180000000     0.303650000000     0.328090000000     0.0330092  
C404     C      0.126550000000     0.334630000000     0.359160000000     0.0332873  
C405     C      0.188900000000     0.395180000000     0.215010000000     0.0331041  
C406     C      0.157830000000     0.384830000000     0.184030000000     0.0333644  
C407     C      0.176730000000     0.384830000000     0.165120000000     0.0333232  
C408     C      0.207720000000     0.395180000000     0.196190000000     0.0329284  
C409     C      0.018250000000     0.389000000000     0.240110000000     0.0333155  
C410     C      0.018140000000     0.405970000000     0.281880000000     0.0333363  
C411     C      0.991560000000     0.405960000000     0.281880000000     0.0331618  
C412     C      0.991470000000     0.389000000000     0.240100000000     0.0333518  
C413     C      0.122380000000     0.493120000000     0.284230000000     0.033372   
C414     C      0.105390000000     0.493250000000     0.242460000000     0.0331982  
C415     C      0.105390000000     0.519820000000     0.242480000000     0.0332607  
C416     C      0.122370000000     0.519900000000     0.284250000000     0.0333523  
C417     C      0.616070000000     0.209480000000     0.828050000000     0.0330796  
C418     C      0.626460000000     0.178510000000     0.859110000000     0.0334191  
C419     C      0.626460000000     0.159600000000     0.840210000000     0.0332622  
C420     C      0.616070000000     0.190660000000     0.809230000000     0.0330663  
C421     C      0.622320000000     0.234550000000     0.998690000000     0.0333133  
C422     C      0.605340000000     0.276320000000     0.998830000000     0.033192   
C423     C      0.605350000000     0.276300000000     0.025400000000     0.0332778  
C424     C      0.622340000000     0.234540000000     0.025470000000     0.0334044  
C425     C      0.332970000000     0.353540000000     0.133830000000     0.033319   
C426     C      0.301980000000     0.322470000000     0.123470000000     0.0329686  
C427     C      0.320800000000     0.303650000000     0.123480000000     0.033081   
C428     C      0.351870000000     0.334640000000     0.133830000000     0.0332788  
C429     C      0.491550000000     0.236750000000     0.112650000000     0.0331909  
C430     C      0.491460000000     0.278510000000     0.129660000000     0.033402   
C431     C      0.518240000000     0.278510000000     0.129660000000     0.0333054  
C432     C      0.518130000000     0.236750000000     0.112650000000     0.0333063  
C433     C      0.320720000000     0.303770000000     0.900790000000     0.0331309  
C434     C      0.351780000000     0.334750000000     0.890440000000     0.0334191  
C435     C      0.332880000000     0.353660000000     0.890440000000     0.0333128  
C436     C      0.301890000000     0.322590000000     0.900790000000     0.0329166  
C437     C      0.393430000000     0.209500000000     0.828090000000     0.0330565  
C438     C      0.383050000000     0.178520000000     0.859160000000     0.0332565  
C439     C      0.383050000000     0.159620000000     0.840250000000     0.0334275  
C440     C      0.393420000000     0.190680000000     0.809270000000     0.0330567  
C441     C      0.387260000000     0.234570000000     0.998740000000     0.0333253  
C442     C      0.404250000000     0.276340000000     0.998860000000     0.0331709  
C443     C      0.404270000000     0.276320000000     0.025430000000     0.0332871  
C444     C      0.387270000000     0.234560000000     0.025510000000     0.0333354  
C445     C      0.491370000000     0.278640000000     0.894590000000     0.0333775  
C446     C      0.491470000000     0.236880000000     0.911570000000     0.0333082  
C447     C      0.518040000000     0.236870000000     0.911560000000     0.0331994  
C448     C      0.518150000000     0.278640000000     0.894590000000     0.033377   
C449     C      0.351870000000     0.884840000000     0.340430000000     0.0332364  
C450     C      0.320800000000     0.895170000000     0.309430000000     0.0329694  
C451     C      0.301980000000     0.895160000000     0.328250000000     0.0330861  
C452     C      0.332960000000     0.884840000000     0.359330000000     0.0334067  
C453     C      0.351880000000     0.128220000000     0.340260000000     0.033375   
C454     C      0.320820000000     0.117860000000     0.309280000000     0.0331935  
C455     C      0.301990000000     0.117850000000     0.328100000000     0.0328903  
C456     C      0.332980000000     0.128220000000     0.359170000000     0.0332729  
C457     C      0.383170000000     0.159490000000     0.184020000000     0.0333824  
C458     C      0.393510000000     0.190560000000     0.215000000000     0.0330923  
C459     C      0.393510000000     0.209380000000     0.196180000000     0.0329543  
C460     C      0.383160000000     0.178390000000     0.165110000000     0.03329    
C461     C      0.404320000000     0.019830000000     0.281970000000     0.0332032  
C462     C      0.387320000000     0.019900000000     0.240200000000     0.0332393  
C463     C      0.387320000000     0.993120000000     0.240230000000     0.0334234  
C464     C      0.404310000000     0.993250000000     0.281990000000     0.0332941  
C465     C      0.626540000000     0.159460000000     0.183970000000     0.0332986  
C466     C      0.616220000000     0.190540000000     0.214960000000     0.0330334  
C467     C      0.616210000000     0.209360000000     0.196140000000     0.0329386  
C468     C      0.626540000000     0.178370000000     0.165060000000     0.0333959  
C469     C      0.657840000000     0.128210000000     0.340220000000     0.0333055  
C470     C      0.688910000000     0.117810000000     0.309240000000     0.0329489  
C471     C      0.707730000000     0.117810000000     0.328070000000     0.0331156  
C472     C      0.676740000000     0.128200000000     0.359130000000     0.0333198  
C473     C      0.518140000000     0.107050000000     0.242370000000     0.0332289  
C474     C      0.518260000000     0.124060000000     0.284120000000     0.0334409  
C475     C      0.491480000000     0.124060000000     0.284130000000     0.0333663  
C476     C      0.491570000000     0.107050000000     0.242380000000     0.0332827  
C477     C      0.657810000000     0.884810000000     0.340390000000     0.0333037  
C478     C      0.688890000000     0.895150000000     0.309410000000     0.033114   
C479     C      0.707710000000     0.895150000000     0.328230000000     0.0329609  
C480     C      0.676720000000     0.884810000000     0.359300000000     0.0333851  
C481     C      0.518240000000     0.889000000000     0.284300000000     0.0334761  
C482     C      0.518130000000     0.905960000000     0.242530000000     0.0333032  
C483     C      0.491560000000     0.905970000000     0.242530000000     0.0331587  
C484     C      0.491460000000     0.889000000000     0.284310000000     0.0333012  
C485     C      0.605400000000     0.993230000000     0.281950000000     0.0333035  
C486     C      0.622380000000     0.993100000000     0.240180000000     0.0332804  
C487     C      0.622380000000     0.019880000000     0.240160000000     0.0334111  
C488     C      0.605400000000     0.019810000000     0.281930000000     0.0332281  
C489     C      0.832950000000     0.628200000000     0.165240000000     0.0332199  
C490     C      0.801970000000     0.617820000000     0.196310000000     0.0330881  
C491     C      0.820790000000     0.617830000000     0.215130000000     0.0330145  
C492     C      0.851850000000     0.628200000000     0.184150000000     0.0334047  
C493     C      0.801870000000     0.617960000000     0.828220000000     0.0330493  
C494     C      0.832860000000     0.628300000000     0.859290000000     0.0334167  
C495     C      0.851770000000     0.628300000000     0.840390000000     0.0332424  
C496     C      0.820690000000     0.617950000000     0.809400000000     0.0329393  
C497     C      0.776790000000     0.624100000000     0.998880000000     0.0332777  
C498     C      0.735030000000     0.607110000000     0.998990000000     0.0333553  
C499     C      0.735040000000     0.607090000000     0.025560000000     0.0332005  
C500     C      0.776800000000     0.624080000000     0.025650000000     0.0334     
C501     C      0.676730000000     0.353510000000     0.133820000000     0.0332678  
C502     C      0.707710000000     0.322450000000     0.123420000000     0.0330534  
C503     C      0.688890000000     0.303630000000     0.123420000000     0.0329865  
C504     C      0.657830000000     0.334610000000     0.133810000000     0.0333396  
C505     C      0.832970000000     0.384820000000     0.165070000000     0.0333484  
C506     C      0.801990000000     0.395140000000     0.196150000000     0.0330556  
C507     C      0.820810000000     0.395140000000     0.214970000000     0.033023   
C508     C      0.851880000000     0.384820000000     0.183980000000     0.0333821  
C509     C      0.774590000000     0.493220000000     0.112720000000     0.033192   
C510     C      0.732830000000     0.493100000000     0.129730000000     0.033406   
C511     C      0.732830000000     0.519880000000     0.129750000000     0.0333636  
C512     C      0.774590000000     0.519790000000     0.112740000000     0.0331863  
C513     C      0.832870000000     0.384910000000     0.859120000000     0.0333621  
C514     C      0.801890000000     0.395300000000     0.828060000000     0.0330371  
C515     C      0.820700000000     0.395290000000     0.809240000000     0.0329935  
C516     C      0.851770000000     0.384900000000     0.840220000000     0.0332769  
C517     C      0.688800000000     0.303750000000     0.900740000000     0.0329922  
C518     C      0.657730000000     0.334740000000     0.890420000000     0.0333883  
C519     C      0.676640000000     0.353650000000     0.890420000000     0.0333154  
C520     C      0.707620000000     0.322570000000     0.900750000000     0.0330825  
C521     C      0.735040000000     0.406020000000     0.998840000000     0.033283   
C522     C      0.776810000000     0.389030000000     0.998720000000     0.0332681  
C523     C      0.776820000000     0.389020000000     0.025490000000     0.0333246  
C524     C      0.735050000000     0.406010000000     0.025420000000     0.0332402  
C525     C      0.774510000000     0.493320000000     0.911640000000     0.0331722  
C526     C      0.732740000000     0.493230000000     0.894660000000     0.0334083  
C527     C      0.732730000000     0.520010000000     0.894680000000     0.033315   
C528     C      0.774500000000     0.519900000000     0.911660000000     0.0333186  
C529     C      0.351860000000     0.678390000000     0.133990000000     0.0332834  
C530     C      0.320780000000     0.709380000000     0.123660000000     0.0330132  
C531     C      0.301960000000     0.690560000000     0.123660000000     0.0330363  
C532     C      0.332950000000     0.659490000000     0.133990000000     0.0333673  
C533     C      0.393520000000     0.803650000000     0.196360000000     0.0331102  
C534     C      0.383130000000     0.834630000000     0.165300000000     0.0332787  
C535     C      0.383140000000     0.853530000000     0.184200000000     0.0333718  
C536     C      0.393520000000     0.822470000000     0.215180000000     0.0329624  
C537     C      0.393390000000     0.803770000000     0.828270000000     0.0329705  
C538     C      0.383060000000     0.834760000000     0.859350000000     0.033281   
C539     C      0.383060000000     0.853660000000     0.840440000000     0.033348   
C540     C      0.393380000000     0.822590000000     0.809450000000     0.0331019  
C541     C      0.351770000000     0.678520000000     0.890600000000     0.0332657  
C542     C      0.320700000000     0.709500000000     0.900980000000     0.0330472  
C543     C      0.301880000000     0.690680000000     0.900980000000     0.0329718  
C544     C      0.332860000000     0.659620000000     0.890590000000     0.0334531  
C545     C      0.404240000000     0.736830000000     0.999010000000     0.0333108  
C546     C      0.387250000000     0.778590000000     0.998940000000     0.0334277  
C547     C      0.387260000000     0.778580000000     0.025720000000     0.033286   
C548     C      0.404250000000     0.736810000000     0.025580000000     0.0331965  
C549     C      0.616160000000     0.803630000000     0.196330000000     0.0330409  
C550     C      0.626540000000     0.834600000000     0.165260000000     0.0334483  
C551     C      0.626540000000     0.853510000000     0.184160000000     0.0332374  
C552     C      0.616160000000     0.822450000000     0.215150000000     0.0330143  
C553     C      0.688870000000     0.709360000000     0.123630000000     0.0330197  
C554     C      0.657800000000     0.678370000000     0.133970000000     0.0333285  
C555     C      0.676710000000     0.659470000000     0.133980000000     0.0333506  
C556     C      0.707690000000     0.690540000000     0.123630000000     0.0330605  
C557     C      0.518210000000     0.734490000000     0.129820000000     0.0334462  
C558     C      0.518120000000     0.776250000000     0.112840000000     0.03324    
C559     C      0.491540000000     0.776260000000     0.112850000000     0.0332458  
C560     C      0.491440000000     0.734490000000     0.129820000000     0.033319   
C561     C      0.626430000000     0.834740000000     0.859310000000     0.0334049  
C562     C      0.616090000000     0.803760000000     0.828240000000     0.0330223  
C563     C      0.616090000000     0.822580000000     0.809420000000     0.0331066  
C564     C      0.626430000000     0.853650000000     0.840400000000     0.0332564  
C565     C      0.657720000000     0.678500000000     0.890580000000     0.0332864  
C566     C      0.688790000000     0.709480000000     0.900940000000     0.0330716  
C567     C      0.707610000000     0.690660000000     0.900940000000     0.0330419  
C568     C      0.676630000000     0.659590000000     0.890580000000     0.0333662  
C569     C      0.518040000000     0.776380000000     0.911760000000     0.0332166  
C570     C      0.518140000000     0.734620000000     0.894750000000     0.0334561  
C571     C      0.491360000000     0.734620000000     0.894750000000     0.0332415  
C572     C      0.491470000000     0.776380000000     0.911760000000     0.0332353  
C573     C      0.622320000000     0.778570000000     0.998900000000     0.0333897  
C574     C      0.605320000000     0.736810000000     0.998980000000     0.0332293  
C575     C      0.605340000000     0.736790000000     0.025560000000     0.0332293  
C576     C      0.622330000000     0.778550000000     0.025680000000     0.0334172  
H1       H      0.598350000000     0.983630000000     0.725480000000     0.0455155  
H2       H      0.629070000000     0.983370000000     0.801100000000     0.0455144  
H3       H      0.629070000000     0.029910000000     0.801060000000     0.045512   
H4       H      0.598360000000     0.029530000000     0.725440000000     0.0454604  
H5       H      0.481470000000     0.130910000000     0.723220000000     0.0455004  
H6       H      0.481810000000     0.100250000000     0.798860000000     0.0454618  
H7       H      0.527700000000     0.100250000000     0.798850000000     0.0455166  
H8       H      0.528010000000     0.130910000000     0.723210000000     0.0455193  
H9       H      0.411130000000     0.983650000000     0.725520000000     0.0454908  
H10      H      0.380430000000     0.983380000000     0.801150000000     0.0454959  
H11      H      0.380420000000     0.029920000000     0.801110000000     0.0455042  
H12      H      0.411120000000     0.029540000000     0.725480000000     0.0454897  
H13      H      0.481800000000     0.913020000000     0.799010000000     0.0454923  
H14      H      0.481460000000     0.882270000000     0.723400000000     0.0454918  
H15      H      0.528000000000     0.882260000000     0.723390000000     0.0455095  
H16      H      0.527690000000     0.913010000000     0.799000000000     0.0454696  
H17      H      0.718120000000     0.029450000000     0.418550000000     0.0454953  
H18      H      0.793750000000     0.029750000000     0.387870000000     0.0455017  
H19      H      0.793750000000     0.983220000000     0.387910000000     0.0454836  
H20      H      0.718120000000     0.983560000000     0.418590000000     0.0454894  
H21      H      0.671010000000     0.132280000000     0.645540000000     0.0458704  
H22      H      0.727060000000     0.113670000000     0.701870000000     0.0448752  
H23      H      0.694500000000     0.113670000000     0.734420000000     0.0447993  
H24      H      0.638190000000     0.132270000000     0.678350000000     0.0458723  
H25      H      0.715900000000     0.130890000000     0.535370000000     0.0455104  
H26      H      0.791520000000     0.100180000000     0.535090000000     0.0455042  
H27      H      0.791540000000     0.100160000000     0.489200000000     0.0454918  
H28      H      0.715920000000     0.130860000000     0.488830000000     0.0455274  
H29      H      0.727050000000     0.899600000000     0.702020000000     0.044838   
H30      H      0.671010000000     0.880910000000     0.645720000000     0.0458825  
H31      H      0.638190000000     0.880900000000     0.678530000000     0.0458855  
H32      H      0.694490000000     0.899590000000     0.734580000000     0.0448474  
H33      H      0.791500000000     0.912950000000     0.535230000000     0.0455112  
H34      H      0.715880000000     0.882240000000     0.535530000000     0.0454789  
H35      H      0.715900000000     0.882220000000     0.489000000000     0.0455084  
H36      H      0.791530000000     0.912920000000     0.489340000000     0.0454458  
H37      H      0.793650000000     0.983350000000     0.636560000000     0.045472   
H38      H      0.718040000000     0.983650000000     0.605820000000     0.0454759  
H39      H      0.718040000000     0.029550000000     0.605780000000     0.0454897  
H40      H      0.793650000000     0.029880000000     0.636520000000     0.0455332  
H41      H      0.871310000000     0.172880000000     0.637820000000     0.0458842  
H42      H      0.815010000000     0.228920000000     0.619100000000     0.0448004  
H43      H      0.782460000000     0.196360000000     0.619110000000     0.0448486  
H44      H      0.838500000000     0.140070000000     0.637830000000     0.045896   
H45      H      0.981810000000     0.293340000000     0.605720000000     0.045493   
H46      H      0.981500000000     0.217730000000     0.636460000000     0.045477   
H47      H      0.028030000000     0.217740000000     0.636460000000     0.0455225  
H48      H      0.027710000000     0.293340000000     0.605720000000     0.0454965  
H49      H      0.871410000000     0.172740000000     0.386430000000     0.0458654  
H50      H      0.815100000000     0.228800000000     0.405040000000     0.0448214  
H51      H      0.782540000000     0.196240000000     0.405050000000     0.0448609  
H52      H      0.838600000000     0.139930000000     0.386440000000     0.0458646  
H53      H      0.911200000000     0.219820000000     0.489180000000     0.0455001  
H54      H      0.880490000000     0.295440000000     0.488800000000     0.045473   
H55      H      0.880470000000     0.295460000000     0.535340000000     0.0455085  
H56      H      0.911180000000     0.219850000000     0.535070000000     0.0454778  
H57      H      0.981900000000     0.293220000000     0.418490000000     0.0454559  
H58      H      0.981580000000     0.217590000000     0.387800000000     0.0454836  
H59      H      0.028120000000     0.217600000000     0.387810000000     0.0455036  
H60      H      0.027790000000     0.293230000000     0.418490000000     0.0455237  
H61      H      0.098440000000     0.219830000000     0.489210000000     0.0454934  
H62      H      0.129140000000     0.295450000000     0.488850000000     0.0455042  
H63      H      0.129110000000     0.295490000000     0.535390000000     0.0454987  
H64      H      0.098410000000     0.219870000000     0.535100000000     0.0454837  
H65      H      0.227070000000     0.196380000000     0.619150000000     0.0447722  
H66      H      0.171020000000     0.140080000000     0.637830000000     0.0458819  
H67      H      0.138210000000     0.172890000000     0.637840000000     0.0458951  
H68      H      0.194510000000     0.228940000000     0.619160000000     0.0448838  
H69      H      0.282440000000     0.113670000000     0.701890000000     0.0448513  
H70      H      0.338500000000     0.132310000000     0.645590000000     0.0458647  
H71      H      0.371310000000     0.132310000000     0.678400000000     0.0458918  
H72      H      0.315000000000     0.113660000000     0.734450000000     0.0448065  
H73      H      0.338480000000     0.880910000000     0.645750000000     0.0459238  
H74      H      0.282430000000     0.899640000000     0.702040000000     0.0448132  
H75      H      0.314990000000     0.899630000000     0.734610000000     0.0448701  
H76      H      0.371290000000     0.880900000000     0.678570000000     0.0458809  
H77      H      0.291480000000     0.983670000000     0.605860000000     0.0455015  
H78      H      0.215850000000     0.983370000000     0.636540000000     0.0455073  
H79      H      0.215850000000     0.029910000000     0.636500000000     0.0455106  
H80      H      0.291480000000     0.029570000000     0.605820000000     0.0454891  
H81      H      0.293700000000     0.882240000000     0.489040000000     0.0454926  
H82      H      0.218080000000     0.912950000000     0.489320000000     0.0455028  
H83      H      0.218060000000     0.912970000000     0.535210000000     0.0454967  
H84      H      0.293680000000     0.882260000000     0.535570000000     0.0454884  
H85      H      0.171110000000     0.139960000000     0.386430000000     0.0458952  
H86      H      0.227160000000     0.196270000000     0.405100000000     0.0448216  
H87      H      0.194600000000     0.228830000000     0.405100000000     0.0448063  
H88      H      0.138300000000     0.172770000000     0.386440000000     0.0458644  
H89      H      0.291560000000     0.029480000000     0.418590000000     0.0454892  
H90      H      0.215950000000     0.029780000000     0.387850000000     0.0454601  
H91      H      0.215940000000     0.983250000000     0.387890000000     0.0455096  
H92      H      0.291550000000     0.983580000000     0.418630000000     0.0455043  
H93      H      0.218090000000     0.100180000000     0.489180000000     0.0454892  
H94      H      0.293720000000     0.130880000000     0.488880000000     0.0454874  
H95      H      0.293690000000     0.130910000000     0.535420000000     0.0455199  
H96      H      0.218070000000     0.100210000000     0.535070000000     0.0454829  
H97      H      0.981800000000     0.600250000000     0.725550000000     0.0454771  
H98      H      0.981460000000     0.630910000000     0.801190000000     0.0454974  
H99      H      0.028000000000     0.630910000000     0.801200000000     0.0455282  
H100     H      0.027690000000     0.600250000000     0.725560000000     0.0454852  
H101     H      0.879080000000     0.373180000000     0.678350000000     0.0458738  
H102     H      0.897690000000     0.316860000000     0.734400000000     0.044827   
H103     H      0.897700000000     0.284310000000     0.701850000000     0.0448364  
H104     H      0.879080000000     0.340360000000     0.645530000000     0.0458889  
H105     H      0.880430000000     0.483370000000     0.723260000000     0.0454738  
H106     H      0.911130000000     0.483630000000     0.798890000000     0.0454368  
H107     H      0.911120000000     0.529520000000     0.798930000000     0.045497   
H108     H      0.880420000000     0.529900000000     0.723300000000     0.045506   
H109     H      0.130430000000     0.373190000000     0.678400000000     0.0458716  
H110     H      0.111800000000     0.316880000000     0.734440000000     0.0448377  
H111     H      0.111800000000     0.284320000000     0.701880000000     0.0448388  
H112     H      0.130440000000     0.340380000000     0.645580000000     0.0458984  
H113     H      0.981470000000     0.382260000000     0.801010000000     0.0454705  
H114     H      0.981810000000     0.413010000000     0.725400000000     0.0454971  
H115     H      0.027700000000     0.413020000000     0.725410000000     0.045454   
H116     H      0.028010000000     0.382270000000     0.801020000000     0.0455083  
H117     H      0.098350000000     0.483640000000     0.798930000000     0.0455155  
H118     H      0.129070000000     0.483380000000     0.723310000000     0.0455382  
H119     H      0.129070000000     0.529920000000     0.723340000000     0.0454607  
H120     H      0.098360000000     0.529540000000     0.798960000000     0.0454971  
H121     H      0.194580000000     0.784210000000     0.405300000000     0.0448782  
H122     H      0.138280000000     0.840250000000     0.386580000000     0.0458706  
H123     H      0.171090000000     0.873070000000     0.386580000000     0.0458886  
H124     H      0.227140000000     0.816770000000     0.405290000000     0.0447802  
H125     H      0.815080000000     0.784180000000     0.405260000000     0.0448085  
H126     H      0.871380000000     0.840230000000     0.386570000000     0.0458933  
H127     H      0.838570000000     0.873040000000     0.386580000000     0.0458837  
H128     H      0.782520000000     0.816740000000     0.405270000000     0.0448358  
H129     H      0.981560000000     0.795390000000     0.387940000000     0.0455259  
H130     H      0.981880000000     0.719780000000     0.418690000000     0.0454784  
H131     H      0.027780000000     0.719790000000     0.418690000000     0.0454957  
H132     H      0.028100000000     0.795400000000     0.387950000000     0.0454841  
H133     H      0.194500000000     0.784320000000     0.619360000000     0.0448391  
H134     H      0.138190000000     0.840380000000     0.637970000000     0.045918   
H135     H      0.171010000000     0.873200000000     0.637970000000     0.0458584  
H136     H      0.227060000000     0.816880000000     0.619360000000     0.0448281  
H137     H      0.111740000000     0.728940000000     0.702060000000     0.0448532  
H138     H      0.130460000000     0.672900000000     0.645760000000     0.0459083  
H139     H      0.130460000000     0.640080000000     0.678580000000     0.0458684  
H140     H      0.111740000000     0.696380000000     0.734620000000     0.044796   
H141     H      0.098400000000     0.793310000000     0.535230000000     0.0454642  
H142     H      0.129110000000     0.717690000000     0.535600000000     0.0455161  
H143     H      0.129130000000     0.717660000000     0.489070000000     0.045473   
H144     H      0.098420000000     0.793280000000     0.489330000000     0.0455224  
H145     H      0.815010000000     0.784300000000     0.619310000000     0.0448575  
H146     H      0.871310000000     0.840360000000     0.637970000000     0.0458925  
H147     H      0.838490000000     0.873170000000     0.637980000000     0.0458771  
H148     H      0.782440000000     0.816860000000     0.619320000000     0.0448226  
H149     H      0.897740000000     0.728930000000     0.702030000000     0.0448533  
H150     H      0.879040000000     0.672890000000     0.645730000000     0.045889   
H151     H      0.879030000000     0.640070000000     0.678540000000     0.0459063  
H152     H      0.897730000000     0.696360000000     0.734590000000     0.0448322  
H153     H      0.880460000000     0.717670000000     0.535560000000     0.045512   
H154     H      0.911160000000     0.793290000000     0.535200000000     0.0455038  
H155     H      0.911190000000     0.793260000000     0.489310000000     0.045495   
H156     H      0.880480000000     0.717640000000     0.489030000000     0.0454909  
H157     H      0.981810000000     0.719900000000     0.605920000000     0.0454938  
H158     H      0.981480000000     0.795530000000     0.636600000000     0.0454877  
H159     H      0.028020000000     0.795530000000     0.636600000000     0.0455229  
H160     H      0.027710000000     0.719900000000     0.605920000000     0.0455158  
H161     H      0.171020000000     0.380920000000     0.878700000000     0.0458608  
H162     H      0.227060000000     0.399620000000     0.822390000000     0.0448466  
H163     H      0.194500000000     0.399610000000     0.789840000000     0.0448114  
H164     H      0.138200000000     0.380920000000     0.845880000000     0.0459003  
H165     H      0.291510000000     0.412970000000     0.989180000000     0.0455209  
H166     H      0.215900000000     0.382260000000     0.988890000000     0.0454912  
H167     H      0.215920000000     0.382230000000     0.035420000000     0.0455075  
H168     H      0.291540000000     0.412950000000     0.035080000000     0.045456   
H169     H      0.218110000000     0.529470000000     0.105860000000     0.045498   
H170     H      0.293740000000     0.529780000000     0.136540000000     0.0454727  
H171     H      0.293750000000     0.483250000000     0.136500000000     0.0455279  
H172     H      0.218120000000     0.483580000000     0.105820000000     0.0454877  
H173     H      0.227050000000     0.613690000000     0.822540000000     0.0448372  
H174     H      0.171000000000     0.632290000000     0.878860000000     0.0458883  
H175     H      0.138180000000     0.632290000000     0.846050000000     0.0458574  
H176     H      0.194490000000     0.613680000000     0.789980000000     0.0448231  
H177     H      0.293650000000     0.529910000000     0.887890000000     0.0455039  
H178     H      0.218040000000     0.529560000000     0.918630000000     0.0455077  
H179     H      0.218040000000     0.483670000000     0.918590000000     0.0454667  
H180     H      0.293650000000     0.483370000000     0.887850000000     0.045497   
H181     H      0.291500000000     0.600200000000     0.989320000000     0.0455032  
H182     H      0.215880000000     0.630900000000     0.989040000000     0.0455162  
H183     H      0.215900000000     0.630880000000     0.035570000000     0.0455107  
H184     H      0.291520000000     0.600180000000     0.035210000000     0.0454983  
H185     H      0.138290000000     0.632240000000     0.178570000000     0.0458715  
H186     H      0.194590000000     0.613520000000     0.234610000000     0.0448281  
H187     H      0.227140000000     0.613510000000     0.202040000000     0.044825   
H188     H      0.171100000000     0.632240000000     0.145750000000     0.0459081  
H189     H      0.111890000000     0.696270000000     0.290000000000     0.0448277  
H190     H      0.130510000000     0.639950000000     0.346060000000     0.0458654  
H191     H      0.130510000000     0.672770000000     0.378870000000     0.0458765  
H192     H      0.111890000000     0.728820000000     0.322560000000     0.0448352  
H193     H      0.879160000000     0.639930000000     0.346020000000     0.0459133  
H194     H      0.897790000000     0.696250000000     0.289970000000     0.0448327  
H195     H      0.897790000000     0.728800000000     0.322530000000     0.0448397  
H196     H      0.879160000000     0.672740000000     0.378840000000     0.0458445  
H197     H      0.981580000000     0.630860000000     0.223390000000     0.0454709  
H198     H      0.981890000000     0.600110000000     0.299000000000     0.0454513  
H199     H      0.027780000000     0.600110000000     0.299000000000     0.0455134  
H200     H      0.028110000000     0.630860000000     0.223400000000     0.0455092  
H201     H      0.897860000000     0.284190000000     0.322340000000     0.0448084  
H202     H      0.879130000000     0.340220000000     0.378640000000     0.0458571  
H203     H      0.879130000000     0.373040000000     0.345830000000     0.0459207  
H204     H      0.897860000000     0.316750000000     0.289780000000     0.0448359  
H205     H      0.911230000000     0.483590000000     0.225440000000     0.0454628  
H206     H      0.880520000000     0.483210000000     0.301060000000     0.0455132  
H207     H      0.880520000000     0.529740000000     0.301100000000     0.0454861  
H208     H      0.911240000000     0.529480000000     0.225480000000     0.0455003  
H209     H      0.130560000000     0.373060000000     0.345880000000     0.0458675  
H210     H      0.111870000000     0.316770000000     0.289820000000     0.0448369  
H211     H      0.111870000000     0.284210000000     0.322380000000     0.0448241  
H212     H      0.130560000000     0.340240000000     0.378690000000     0.0459077  
H213     H      0.194610000000     0.399490000000     0.234460000000     0.0448105  
H214     H      0.138300000000     0.380840000000     0.178400000000     0.0458669  
H215     H      0.171110000000     0.380830000000     0.145590000000     0.0458934  
H216     H      0.227160000000     0.399480000000     0.201900000000     0.0448498  
H217     H      0.028130000000     0.382220000000     0.223220000000     0.0455155  
H218     H      0.027790000000     0.412880000000     0.298860000000     0.0454663  
H219     H      0.981900000000     0.412880000000     0.298850000000     0.0455104  
H220     H      0.981600000000     0.382220000000     0.223210000000     0.0454994  
H221     H      0.129170000000     0.483230000000     0.301110000000     0.0454946  
H222     H      0.098470000000     0.483600000000     0.225480000000     0.0454966  
H223     H      0.098460000000     0.529500000000     0.225520000000     0.0455013  
H224     H      0.129160000000     0.529760000000     0.301150000000     0.0454894  
H225     H      0.611750000000     0.228930000000     0.822340000000     0.0448081  
H226     H      0.630470000000     0.172890000000     0.878640000000     0.0458691  
H227     H      0.630470000000     0.140070000000     0.845830000000     0.0459111  
H228     H      0.611750000000     0.196370000000     0.789780000000     0.0448167  
H229     H      0.629110000000     0.217670000000     0.988800000000     0.0455104  
H230     H      0.598410000000     0.293290000000     0.989180000000     0.0455048  
H231     H      0.598430000000     0.293260000000     0.035070000000     0.0454811  
H232     H      0.629130000000     0.217640000000     0.035330000000     0.0454786  
H233     H      0.338590000000     0.373070000000     0.137830000000     0.0458868  
H234     H      0.282540000000     0.316770000000     0.119160000000     0.0448511  
H235     H      0.315090000000     0.284210000000     0.119170000000     0.0448167  
H236     H      0.371400000000     0.340260000000     0.137830000000     0.0459019  
H237     H      0.481890000000     0.219790000000     0.105720000000     0.0454976  
H238     H      0.481580000000     0.295400000000     0.136460000000     0.0454933  
H239     H      0.528120000000     0.295390000000     0.136450000000     0.0455186  
H240     H      0.527780000000     0.219780000000     0.105720000000     0.0454642  
H241     H      0.315010000000     0.284320000000     0.905100000000     0.0448031  
H242     H      0.371310000000     0.340380000000     0.886440000000     0.0458462  
H243     H      0.338500000000     0.373190000000     0.886440000000     0.0458887  
H244     H      0.282450000000     0.316880000000     0.905090000000     0.04486    
H245     H      0.397740000000     0.228940000000     0.822380000000     0.0448203  
H246     H      0.379040000000     0.172900000000     0.878690000000     0.0459081  
H247     H      0.379040000000     0.140090000000     0.845880000000     0.0458534  
H248     H      0.397740000000     0.196380000000     0.789820000000     0.0448267  
H249     H      0.380460000000     0.217690000000     0.988850000000     0.0455146  
H250     H      0.411170000000     0.293310000000     0.989200000000     0.045513   
H251     H      0.411200000000     0.293280000000     0.035100000000     0.0454925  
H252     H      0.380490000000     0.217660000000     0.035380000000     0.0455051  
H253     H      0.481490000000     0.295540000000     0.887810000000     0.045497   
H254     H      0.481810000000     0.219910000000     0.918490000000     0.045476   
H255     H      0.527710000000     0.219900000000     0.918480000000     0.0455051  
H256     H      0.528030000000     0.295530000000     0.887800000000     0.0454895  
H257     H      0.371400000000     0.880860000000     0.346050000000     0.0459134  
H258     H      0.315100000000     0.899470000000     0.289990000000     0.0448505  
H259     H      0.282530000000     0.899460000000     0.322540000000     0.0448215  
H260     H      0.338580000000     0.880850000000     0.378860000000     0.0458621  
H261     H      0.371410000000     0.132230000000     0.345880000000     0.0458724  
H262     H      0.315110000000     0.113540000000     0.289830000000     0.0447885  
H263     H      0.282550000000     0.113540000000     0.322390000000     0.0448647  
H264     H      0.338590000000     0.132220000000     0.378700000000     0.0459081  
H265     H      0.379170000000     0.139950000000     0.178400000000     0.0458758  
H266     H      0.397820000000     0.196270000000     0.234440000000     0.0448235  
H267     H      0.397810000000     0.228820000000     0.201880000000     0.0448539  
H268     H      0.379170000000     0.172770000000     0.145580000000     0.045893   
H269     H      0.411250000000     0.029500000000     0.298930000000     0.0455115  
H270     H      0.380530000000     0.029760000000     0.223310000000     0.0455303  
H271     H      0.380530000000     0.983230000000     0.223350000000     0.0454914  
H272     H      0.411240000000     0.983610000000     0.298960000000     0.0454676  
H273     H      0.630530000000     0.139930000000     0.178350000000     0.0458832  
H274     H      0.611920000000     0.196250000000     0.234400000000     0.0448325  
H275     H      0.611920000000     0.228800000000     0.201840000000     0.0448627  
H276     H      0.630520000000     0.172740000000     0.145530000000     0.0458544  
H277     H      0.638310000000     0.132230000000     0.345830000000     0.0459069  
H278     H      0.694610000000     0.113490000000     0.289800000000     0.0448613  
H279     H      0.727170000000     0.113480000000     0.322360000000     0.0447974  
H280     H      0.671120000000     0.132220000000     0.378650000000     0.0458871  
H281     H      0.527800000000     0.100110000000     0.225400000000     0.0454949  
H282     H      0.528140000000     0.130860000000     0.301010000000     0.0454748  
H283     H      0.481600000000     0.130870000000     0.301020000000     0.0454999  
H284     H      0.481910000000     0.100110000000     0.225410000000     0.0454688  
H285     H      0.638280000000     0.880820000000     0.346010000000     0.0458923  
H286     H      0.694600000000     0.899460000000     0.289960000000     0.0448073  
H287     H      0.727150000000     0.899450000000     0.322520000000     0.0448442  
H288     H      0.671100000000     0.880810000000     0.378830000000     0.0458772  
H289     H      0.528120000000     0.882220000000     0.301200000000     0.0454703  
H290     H      0.527790000000     0.912880000000     0.225550000000     0.0454738  
H291     H      0.481890000000     0.912880000000     0.225560000000     0.0455194  
H292     H      0.481580000000     0.882220000000     0.301200000000     0.0455103  
H293     H      0.598480000000     0.983590000000     0.298930000000     0.0454659  
H294     H      0.629180000000     0.983200000000     0.223300000000     0.04553    
H295     H      0.629170000000     0.029740000000     0.223260000000     0.0454761  
H296     H      0.598470000000     0.029480000000     0.298890000000     0.0454978  
H297     H      0.838570000000     0.632200000000     0.145710000000     0.0459109  
H298     H      0.782530000000     0.613500000000     0.202020000000     0.0448153  
H299     H      0.815090000000     0.613510000000     0.234580000000     0.0448482  
H300     H      0.871380000000     0.632210000000     0.178530000000     0.0458684  
H301     H      0.782430000000     0.613660000000     0.822520000000     0.044832   
H302     H      0.838480000000     0.632300000000     0.878820000000     0.0458631  
H303     H      0.871300000000     0.632290000000     0.846010000000     0.0459123  
H304     H      0.814990000000     0.613650000000     0.789960000000     0.0448618  
H305     H      0.793670000000     0.630900000000     0.988990000000     0.0455266  
H306     H      0.718050000000     0.600180000000     0.989330000000     0.04546    
H307     H      0.718080000000     0.600160000000     0.035230000000     0.0455096  
H308     H      0.793700000000     0.630870000000     0.035530000000     0.0454908  
H309     H      0.671110000000     0.373040000000     0.137830000000     0.0459088  
H310     H      0.727150000000     0.316750000000     0.119100000000     0.0448376  
H311     H      0.694590000000     0.284190000000     0.119090000000     0.0448542  
H312     H      0.638300000000     0.340220000000     0.137830000000     0.0458993  
H313     H      0.838600000000     0.380830000000     0.145540000000     0.0458724  
H314     H      0.782540000000     0.399430000000     0.201860000000     0.0448397  
H315     H      0.815110000000     0.399440000000     0.234420000000     0.0448383  
H316     H      0.871420000000     0.380840000000     0.178350000000     0.045865   
H317     H      0.791550000000     0.483560000000     0.105780000000     0.0455096  
H318     H      0.715940000000     0.483220000000     0.136520000000     0.0454873  
H319     H      0.715940000000     0.529750000000     0.136550000000     0.0454954  
H320     H      0.791550000000     0.529460000000     0.105820000000     0.0455137  
H321     H      0.838490000000     0.380900000000     0.878650000000     0.0458813  
H322     H      0.782440000000     0.399630000000     0.822360000000     0.0448303  
H323     H      0.815000000000     0.399620000000     0.789800000000     0.0448449  
H324     H      0.871300000000     0.380880000000     0.845830000000     0.0459032  
H325     H      0.694510000000     0.284310000000     0.905040000000     0.0448409  
H326     H      0.638200000000     0.340370000000     0.886430000000     0.0458651  
H327     H      0.671010000000     0.373180000000     0.886430000000     0.0458751  
H328     H      0.727070000000     0.316860000000     0.905050000000     0.0448212  
H329     H      0.718070000000     0.412950000000     0.989190000000     0.0454817  
H330     H      0.793690000000     0.382250000000     0.988830000000     0.0455278  
H331     H      0.793710000000     0.382230000000     0.035360000000     0.0455042  
H332     H      0.718090000000     0.412930000000     0.035090000000     0.0454902  
H333     H      0.791480000000     0.483660000000     0.918550000000     0.0455044  
H334     H      0.715850000000     0.483350000000     0.887860000000     0.0454944  
H335     H      0.715840000000     0.529890000000     0.887900000000     0.0455098  
H336     H      0.791470000000     0.529560000000     0.918590000000     0.0454717  
H337     H      0.371390000000     0.672770000000     0.137980000000     0.0458946  
H338     H      0.315080000000     0.728830000000     0.119360000000     0.0448431  
H339     H      0.282520000000     0.696270000000     0.119360000000     0.044833   
H340     H      0.338570000000     0.639950000000     0.137970000000     0.0458842  
H341     H      0.397840000000     0.784210000000     0.202070000000     0.0447974  
H342     H      0.379120000000     0.840250000000     0.145770000000     0.045896   
H343     H      0.379130000000     0.873060000000     0.178580000000     0.0458875  
H344     H      0.397840000000     0.816770000000     0.234620000000     0.0448549  
H345     H      0.397680000000     0.784320000000     0.822560000000     0.0448478  
H346     H      0.379070000000     0.840380000000     0.878880000000     0.045889   
H347     H      0.379070000000     0.873200000000     0.846060000000     0.0458829  
H348     H      0.397680000000     0.816880000000     0.790000000000     0.0448234  
H349     H      0.371300000000     0.672900000000     0.886580000000     0.0459062  
H350     H      0.315000000000     0.728940000000     0.905310000000     0.0448399  
H351     H      0.282440000000     0.696380000000     0.905300000000     0.044842   
H352     H      0.338490000000     0.640090000000     0.886580000000     0.0458437  
H353     H      0.411160000000     0.719860000000     0.989340000000     0.0454666  
H354     H      0.380460000000     0.795490000000     0.989070000000     0.0454824  
H355     H      0.380480000000     0.795460000000     0.035610000000     0.0455212  
H356     H      0.411180000000     0.719840000000     0.035230000000     0.0454963  
H357     H      0.611840000000     0.784180000000     0.202030000000     0.0448346  
H358     H      0.630550000000     0.840220000000     0.145730000000     0.0458514  
H359     H      0.630550000000     0.873040000000     0.178540000000     0.0459186  
H360     H      0.611840000000     0.816750000000     0.234590000000     0.0448395  
H361     H      0.694580000000     0.728800000000     0.119320000000     0.044827   
H362     H      0.638270000000     0.672750000000     0.137970000000     0.0458824  
H363     H      0.671090000000     0.639930000000     0.137970000000     0.0458876  
H364     H      0.727140000000     0.696250000000     0.119320000000     0.0448309  
H365     H      0.528090000000     0.717590000000     0.136600000000     0.045477   
H366     H      0.527780000000     0.793220000000     0.105920000000     0.0454856  
H367     H      0.481880000000     0.793230000000     0.105930000000     0.0454943  
H368     H      0.481560000000     0.717600000000     0.136610000000     0.0455088  
H369     H      0.630430000000     0.840370000000     0.878840000000     0.0458581  
H370     H      0.611790000000     0.784310000000     0.822530000000     0.0448427  
H371     H      0.611780000000     0.816870000000     0.789970000000     0.0448128  
H372     H      0.630420000000     0.873180000000     0.846020000000     0.0458959  
H373     H      0.638190000000     0.672880000000     0.886580000000     0.0458929  
H374     H      0.694500000000     0.728920000000     0.905250000000     0.0448167  
H375     H      0.727060000000     0.696360000000     0.905260000000     0.0448394  
H376     H      0.671000000000     0.640060000000     0.886580000000     0.0458715  
H377     H      0.527700000000     0.793340000000     0.918690000000     0.0454949  
H378     H      0.528010000000     0.717730000000     0.887950000000     0.0454677  
H379     H      0.481480000000     0.717740000000     0.887960000000     0.045529   
H380     H      0.481810000000     0.793340000000     0.918690000000     0.0454969  
H381     H      0.629100000000     0.795470000000     0.989030000000     0.045482   
H382     H      0.598390000000     0.719850000000     0.989310000000     0.0454969  
H383     H      0.598410000000     0.719820000000     0.035210000000     0.0454964  
H384     H      0.629130000000     0.795440000000     0.035570000000     0.0454912  
In1      In     0.608810000000     0.756620000000     0.908220000000     2.44873    
In2      In     0.608890000000     0.756490000000     0.116340000000     2.44914    
In3      In     0.400690000000     0.756630000000     0.908250000000     2.44887    
In4      In     0.400770000000     0.756520000000     0.116370000000     2.44907    
In5      In     0.754760000000     0.402550000000     0.908060000000     2.44917    
In6      In     0.754840000000     0.402440000000     0.116180000000     2.44878    
In7      In     0.754740000000     0.610670000000     0.908210000000     2.44869    
In8      In     0.754830000000     0.610560000000     0.116330000000     2.44842    
In9      In     0.608910000000     0.902450000000     0.262270000000     2.44858    
In10     In     0.608920000000     0.110560000000     0.262110000000     2.44862    
In11     In     0.400800000000     0.110580000000     0.262150000000     2.44871    
In12     In     0.400790000000     0.902470000000     0.262300000000     2.44867    
In13     In     0.400700000000     0.256630000000     0.908070000000     2.44898    
In14     In     0.400780000000     0.256520000000     0.116190000000     2.44911    
In15     In     0.608820000000     0.256620000000     0.908040000000     2.44935    
In16     In     0.608900000000     0.256500000000     0.116160000000     2.44904    
In17     In     0.108910000000     0.402460000000     0.262150000000     2.44905    
In18     In     0.900790000000     0.402440000000     0.262110000000     2.44881    
In19     In     0.900780000000     0.610560000000     0.262260000000     2.44873    
In20     In     0.108900000000     0.610580000000     0.262300000000     2.44851    
In21     In     0.254750000000     0.610680000000     0.908220000000     2.44893    
In22     In     0.254820000000     0.610580000000     0.116340000000     2.44817    
In23     In     0.254850000000     0.402460000000     0.116200000000     2.44879    
In24     In     0.254760000000     0.402570000000     0.908080000000     2.44896    
In25     In     0.900700000000     0.756620000000     0.616340000000     2.44851    
In26     In     0.108810000000     0.756630000000     0.616370000000     2.44897    
In27     In     0.900770000000     0.756490000000     0.408220000000     2.44892    
In28     In     0.108890000000     0.756520000000     0.408250000000     2.44906    
In29     In     0.108810000000     0.402560000000     0.762150000000     2.44882    
In30     In     0.900690000000     0.402550000000     0.762100000000     2.44963    
In31     In     0.900680000000     0.610670000000     0.762260000000     2.44848    
In32     In     0.108800000000     0.610680000000     0.762300000000     2.44887    
In33     In     0.254850000000     0.110580000000     0.408080000000     2.44883    
In34     In     0.254830000000     0.902470000000     0.408220000000     2.44894    
In35     In     0.254760000000     0.902570000000     0.616340000000     2.44847    
In36     In     0.254760000000     0.110680000000     0.616200000000     2.44919    
In37     In     0.108900000000     0.256510000000     0.408070000000     2.44894    
In38     In     0.900790000000     0.256500000000     0.408040000000     2.44905    
In39     In     0.900710000000     0.256610000000     0.616160000000     2.44863    
In40     In     0.108820000000     0.256630000000     0.616200000000     2.449      
In41     In     0.754750000000     0.902550000000     0.616330000000     2.44885    
In42     In     0.754770000000     0.110660000000     0.616180000000     2.44875    
In43     In     0.754850000000     0.110560000000     0.408060000000     2.44895    
In44     In     0.754840000000     0.902440000000     0.408210000000     2.44885    
In45     In     0.400680000000     0.902560000000     0.762300000000     2.44911    
In46     In     0.400690000000     0.110680000000     0.762150000000     2.44905    
In47     In     0.608800000000     0.902550000000     0.762270000000     2.44876    
In48     In     0.608810000000     0.110670000000     0.762110000000     2.44913    
N1       N      0.613530000000     0.980020000000     0.763390000000    -0.175592   
N2       N      0.613540000000     0.033190000000     0.763340000000    -0.175535   
N3       N      0.478160000000     0.115410000000     0.760950000000    -0.175561   
N4       N      0.531330000000     0.115400000000     0.760930000000    -0.175434   
N5       N      0.395950000000     0.980040000000     0.763430000000    -0.175485   
N6       N      0.395950000000     0.033210000000     0.763390000000    -0.17559    
N7       N      0.478150000000     0.897820000000     0.761110000000    -0.175625   
N8       N      0.531320000000     0.897820000000     0.761100000000    -0.17548    
N9       N      0.756030000000     0.033080000000     0.403380000000    -0.175473   
N10      N      0.756030000000     0.979910000000     0.403430000000    -0.175592   
N11      N      0.701380000000     0.122440000000     0.671160000000    -0.175462   
N12      N      0.663800000000     0.122430000000     0.708730000000    -0.175562   
N13      N      0.753620000000     0.115360000000     0.538710000000    -0.175499   
N14      N      0.753640000000     0.115330000000     0.485540000000    -0.17541    
N15      N      0.701380000000     0.890790000000     0.671330000000    -0.175511   
N16      N      0.663800000000     0.890790000000     0.708900000000    -0.175507   
N17      N      0.753600000000     0.897770000000     0.538860000000    -0.175447   
N18      N      0.753630000000     0.897740000000     0.485690000000    -0.175546   
N19      N      0.755930000000     0.980020000000     0.621020000000    -0.175627   
N20      N      0.755940000000     0.033190000000     0.620970000000    -0.175424   
N21      N      0.845700000000     0.203250000000     0.627920000000    -0.175479   
N22      N      0.808130000000     0.165670000000     0.627930000000    -0.175491   
N23      N      0.978180000000     0.255440000000     0.620910000000    -0.175522   
N24      N      0.031350000000     0.255450000000     0.620920000000    -0.175531   
N25      N      0.845800000000     0.203120000000     0.396280000000    -0.175551   
N26      N      0.808220000000     0.165540000000     0.396280000000    -0.175582   
N27      N      0.896020000000     0.257720000000     0.485510000000    -0.175609   
N28      N      0.896000000000     0.257750000000     0.538680000000    -0.175538   
N29      N      0.978260000000     0.255320000000     0.403320000000    -0.175678   
N30      N      0.031430000000     0.255320000000     0.403330000000    -0.175413   
N31      N      0.113610000000     0.257740000000     0.485550000000    -0.175458   
N32      N      0.113580000000     0.257770000000     0.538720000000    -0.175532   
N33      N      0.201390000000     0.165690000000     0.627950000000    -0.17557    
N34      N      0.163820000000     0.203260000000     0.627960000000    -0.175363   
N35      N      0.308120000000     0.122450000000     0.671200000000    -0.175538   
N36      N      0.345690000000     0.122440000000     0.708770000000    -0.175437   
N37      N      0.308110000000     0.890820000000     0.671360000000    -0.175369   
N38      N      0.345680000000     0.890800000000     0.708940000000    -0.175449   
N39      N      0.253570000000     0.980040000000     0.621020000000    -0.175573   
N40      N      0.253570000000     0.033210000000     0.620980000000    -0.175501   
N41      N      0.255980000000     0.897770000000     0.485700000000    -0.175507   
N42      N      0.255960000000     0.897790000000     0.538870000000    -0.17548    
N43      N      0.201480000000     0.165580000000     0.396300000000    -0.175458   
N44      N      0.163910000000     0.203150000000     0.396310000000    -0.175512   
N45      N      0.253660000000     0.033110000000     0.403390000000    -0.175625   
N46      N      0.253650000000     0.979940000000     0.403440000000    -0.175462   
N47      N      0.256000000000     0.115350000000     0.485550000000    -0.175568   
N48      N      0.255970000000     0.115380000000     0.538720000000    -0.175517   
N49      N      0.978150000000     0.615400000000     0.763460000000    -0.175577   
N50      N      0.031320000000     0.615400000000     0.763470000000    -0.175483   
N51      N      0.888930000000     0.347560000000     0.708720000000    -0.175506   
N52      N      0.888930000000     0.309990000000     0.671150000000    -0.175438   
N53      N      0.895960000000     0.480020000000     0.760980000000    -0.175677   
N54      N      0.895950000000     0.533190000000     0.761020000000    -0.175509   
N55      N      0.120580000000     0.347580000000     0.708770000000    -0.175523   
N56      N      0.120580000000     0.310000000000     0.671190000000    -0.17556    
N57      N      0.978160000000     0.397810000000     0.763300000000    -0.175664   
N58      N      0.031330000000     0.397820000000     0.763310000000    -0.175528   
N59      N      0.113540000000     0.480030000000     0.761020000000    -0.175543   
N60      N      0.113540000000     0.533210000000     0.761060000000    -0.175641   
N61      N      0.163890000000     0.809890000000     0.396480000000    -0.175437   
N62      N      0.201460000000     0.847460000000     0.396470000000    -0.175575   
N63      N      0.845770000000     0.809860000000     0.396450000000    -0.17553    
N64      N      0.808200000000     0.847440000000     0.396460000000    -0.175528   
N65      N      0.978240000000     0.757680000000     0.403490000000    -0.175534   
N66      N      0.031420000000     0.757690000000     0.403500000000    -0.175583   
N67      N      0.163810000000     0.810000000000     0.628130000000    -0.175493   
N68      N      0.201380000000     0.847580000000     0.628120000000    -0.175551   
N69      N      0.120560000000     0.703270000000     0.671370000000    -0.175468   
N70      N      0.120560000000     0.665690000000     0.708940000000    -0.175565   
N71      N      0.113580000000     0.755410000000     0.538890000000    -0.175514   
N72      N      0.113600000000     0.755380000000     0.485720000000    -0.175536   
N73      N      0.845700000000     0.809990000000     0.628100000000    -0.175451   
N74      N      0.808120000000     0.847560000000     0.628110000000    -0.175566   
N75      N      0.888930000000     0.703250000000     0.671340000000    -0.175429   
N76      N      0.888920000000     0.665680000000     0.708910000000    -0.175382   
N77      N      0.895980000000     0.755390000000     0.538860000000    -0.175418   
N78      N      0.896010000000     0.755350000000     0.485690000000    -0.175603   
N79      N      0.978170000000     0.757810000000     0.621080000000    -0.175523   
N80      N      0.031340000000     0.757810000000     0.621090000000    -0.175454   
N81      N      0.201380000000     0.390810000000     0.853090000000    -0.175496   
N82      N      0.163810000000     0.390800000000     0.815510000000    -0.175513   
N83      N      0.253610000000     0.397790000000     0.985560000000    -0.175442   
N84      N      0.253640000000     0.397760000000     0.038730000000    -0.175637   
N85      N      0.256020000000     0.533100000000     0.121030000000    -0.175495   
N86      N      0.256030000000     0.479930000000     0.120980000000    -0.175537   
N87      N      0.201370000000     0.622450000000     0.853240000000    -0.175515   
N88      N      0.163790000000     0.622440000000     0.815670000000    -0.175572   
N89      N      0.255940000000     0.533210000000     0.903440000000    -0.175459   
N90      N      0.255930000000     0.480040000000     0.903390000000    -0.175579   
N91      N      0.253600000000     0.615380000000     0.985700000000    -0.175477   
N92      N      0.253620000000     0.615360000000     0.038870000000    -0.175448   
N93      N      0.163900000000     0.622340000000     0.208930000000    -0.175448   
N94      N      0.201470000000     0.622330000000     0.171360000000    -0.175478   
N95      N      0.120660000000     0.665570000000     0.315680000000    -0.175494   
N96      N      0.120660000000     0.703140000000     0.353260000000    -0.175553   
N97      N      0.889010000000     0.665550000000     0.315640000000    -0.175469   
N98      N      0.889010000000     0.703120000000     0.353220000000    -0.17554    
N99      N      0.978250000000     0.615310000000     0.261100000000    -0.175657   
N100     N      0.031420000000     0.615320000000     0.261110000000    -0.175459   
N101     N      0.889030000000     0.309860000000     0.353030000000    -0.17557    
N102     N      0.889040000000     0.347430000000     0.315460000000    -0.175417   
N103     N      0.896050000000     0.479920000000     0.263340000000    -0.175505   
N104     N      0.896050000000     0.533090000000     0.263390000000    -0.1756     
N105     N      0.120670000000     0.347460000000     0.315500000000    -0.175591   
N106     N      0.120670000000     0.309880000000     0.353080000000    -0.175564   
N107     N      0.163910000000     0.390700000000     0.208780000000    -0.175553   
N108     N      0.201480000000     0.390690000000     0.171200000000    -0.175413   
N109     N      0.031440000000     0.397730000000     0.260950000000    -0.175443   
N110     N      0.978270000000     0.397720000000     0.260930000000    -0.175419   
N111     N      0.113650000000     0.479940000000     0.263390000000    -0.175526   
N112     N      0.113630000000     0.533110000000     0.263430000000    -0.175538   
N113     N      0.620570000000     0.203250000000     0.853030000000    -0.175538   
N114     N      0.620570000000     0.165680000000     0.815460000000    -0.175457   
N115     N      0.613580000000     0.255390000000     0.985510000000    -0.175505   
N116     N      0.613610000000     0.255360000000     0.038680000000    -0.175548   
N117     N      0.308220000000     0.347460000000     0.127950000000    -0.175457   
N118     N      0.345790000000     0.309880000000     0.127960000000    -0.175516   
N119     N      0.478260000000     0.257690000000     0.120910000000    -0.175524   
N120     N      0.531430000000     0.257680000000     0.120910000000    -0.175569   
N121     N      0.345700000000     0.310010000000     0.896310000000    -0.175462   
N122     N      0.308130000000     0.347580000000     0.896300000000    -0.175444   
N123     N      0.388930000000     0.203270000000     0.853070000000    -0.175487   
N124     N      0.388930000000     0.165690000000     0.815500000000    -0.175639   
N125     N      0.395990000000     0.255410000000     0.985550000000    -0.175487   
N126     N      0.396020000000     0.255380000000     0.038720000000    -0.175491   
N127     N      0.478170000000     0.257810000000     0.903320000000    -0.175588   
N128     N      0.531340000000     0.257810000000     0.903320000000    -0.175545   
N129     N      0.345790000000     0.890700000000     0.315670000000    -0.175489   
N130     N      0.308210000000     0.890690000000     0.353240000000    -0.175543   
N131     N      0.345800000000     0.122350000000     0.315510000000    -0.175536   
N132     N      0.308230000000     0.122340000000     0.353090000000    -0.175417   
N133     N      0.389040000000     0.165570000000     0.208770000000    -0.175519   
N134     N      0.389030000000     0.203140000000     0.171190000000    -0.175487   
N135     N      0.396070000000     0.033110000000     0.261020000000    -0.175384   
N136     N      0.396050000000     0.979940000000     0.261070000000    -0.175544   
N137     N      0.620690000000     0.165550000000     0.208720000000    -0.175407   
N138     N      0.620680000000     0.203120000000     0.171140000000    -0.175569   
N139     N      0.663920000000     0.122320000000     0.315470000000    -0.175447   
N140     N      0.701490000000     0.122310000000     0.353050000000    -0.17553    
N141     N      0.531450000000     0.115310000000     0.263300000000    -0.175645   
N142     N      0.478280000000     0.115320000000     0.263310000000    -0.175524   
N143     N      0.663900000000     0.890680000000     0.315640000000    -0.175565   
N144     N      0.701470000000     0.890670000000     0.353220000000    -0.175508   
N145     N      0.531430000000     0.897720000000     0.263470000000    -0.17556    
N146     N      0.478260000000     0.897730000000     0.263480000000    -0.175595   
N147     N      0.613650000000     0.979920000000     0.261030000000    -0.175461   
N148     N      0.613650000000     0.033090000000     0.260980000000    -0.17555    
N149     N      0.808200000000     0.622310000000     0.171330000000    -0.17544    
N150     N      0.845780000000     0.622320000000     0.208900000000    -0.175514   
N151     N      0.808110000000     0.622440000000     0.853210000000    -0.17557    
N152     N      0.845680000000     0.622430000000     0.815640000000    -0.175333   
N153     N      0.755950000000     0.615370000000     0.985690000000    -0.17551    
N154     N      0.755980000000     0.615330000000     0.038860000000    -0.175615   
N155     N      0.701480000000     0.347430000000     0.127930000000    -0.175387   
N156     N      0.663900000000     0.309860000000     0.127920000000    -0.175454   
N157     N      0.808220000000     0.390670000000     0.171160000000    -0.175515   
N158     N      0.845800000000     0.390680000000     0.208730000000    -0.175554   
N159     N      0.753650000000     0.479910000000     0.120970000000    -0.175565   
N160     N      0.753650000000     0.533080000000     0.121010000000    -0.175453   
N161     N      0.808120000000     0.390800000000     0.853050000000    -0.175522   
N162     N      0.845690000000     0.390790000000     0.815470000000    -0.175506   
N163     N      0.663810000000     0.309990000000     0.896270000000    -0.17549    
N164     N      0.701390000000     0.347560000000     0.896280000000    -0.175517   
N165     N      0.755970000000     0.397780000000     0.985530000000    -0.175537   
N166     N      0.755990000000     0.397750000000     0.038700000000    -0.175503   
N167     N      0.753570000000     0.480030000000     0.903380000000    -0.17548    
N168     N      0.753560000000     0.533200000000     0.903430000000    -0.175567   
N169     N      0.345770000000     0.703140000000     0.128130000000    -0.17545    
N170     N      0.308200000000     0.665570000000     0.128120000000    -0.175465   
N171     N      0.389020000000     0.809880000000     0.171380000000    -0.17552    
N172     N      0.389020000000     0.847460000000     0.208950000000    -0.175493   
N173     N      0.388920000000     0.810010000000     0.853260000000    -0.1754     
N174     N      0.388910000000     0.847580000000     0.815680000000    -0.175536   
N175     N      0.345690000000     0.703270000000     0.896490000000    -0.175489   
N176     N      0.308120000000     0.665690000000     0.896480000000    -0.175545   
N177     N      0.395980000000     0.757770000000     0.985730000000    -0.17556    
N178     N      0.396010000000     0.757740000000     0.038900000000    -0.175595   
N179     N      0.620660000000     0.809860000000     0.171340000000    -0.175571   
N180     N      0.620660000000     0.847430000000     0.208910000000    -0.175365   
N181     N      0.663880000000     0.703120000000     0.128100000000    -0.175549   
N182     N      0.701460000000     0.665550000000     0.128110000000    -0.175492   
N183     N      0.531410000000     0.755310000000     0.121090000000    -0.175538   
N184     N      0.478240000000     0.755320000000     0.121090000000    -0.175565   
N185     N      0.620570000000     0.809990000000     0.853230000000    -0.175523   
N186     N      0.620560000000     0.847560000000     0.815650000000    -0.17543    
N187     N      0.663810000000     0.703250000000     0.896450000000    -0.175462   
N188     N      0.701380000000     0.665670000000     0.896460000000    -0.175552   
N189     N      0.531340000000     0.755440000000     0.903500000000    -0.17566    
N190     N      0.478170000000     0.755450000000     0.903500000000    -0.175423   
N191     N      0.613570000000     0.757760000000     0.985700000000    -0.175535   
N192     N      0.613600000000     0.757720000000     0.038870000000    -0.175548   
O1       O      0.603920000000     0.738880000000     0.947190000000    -0.515322   
O2       O      0.619720000000     0.776350000000     0.945940000000    -0.485411   
O3       O      0.621660000000     0.716680000000     0.895870000000    -0.490344   
O4       O      0.571090000000     0.736880000000     0.897320000000    -0.485621   
O5       O      0.621140000000     0.796560000000     0.895370000000    -0.490724   
O6       O      0.569840000000     0.774340000000     0.913130000000    -0.515416   
O7       O      0.650110000000     0.743970000000     0.906060000000    -0.514117   
O8       O      0.610970000000     0.769270000000     0.866920000000    -0.514231   
O9       O      0.611040000000     0.769140000000     0.157640000000    -0.514241   
O10      O      0.621240000000     0.796420000000     0.129200000000    -0.49073    
O11      O      0.621740000000     0.716550000000     0.128670000000    -0.490806   
O12      O      0.571170000000     0.736740000000     0.127240000000    -0.485326   
O13      O      0.619780000000     0.776260000000     0.078640000000    -0.485411   
O14      O      0.569920000000     0.774220000000     0.111460000000    -0.51538    
O15      O      0.650180000000     0.743840000000     0.118500000000    -0.514531   
O16      O      0.603980000000     0.738780000000     0.077360000000    -0.515096   
O17      O      0.398520000000     0.769280000000     0.866960000000    -0.514371   
O18      O      0.388350000000     0.796570000000     0.895410000000    -0.490534   
O19      O      0.387830000000     0.716700000000     0.895890000000    -0.490593   
O20      O      0.438400000000     0.736880000000     0.897330000000    -0.485223   
O21      O      0.389800000000     0.776360000000     0.945980000000    -0.485395   
O22      O      0.439670000000     0.774350000000     0.913150000000    -0.515118   
O23      O      0.359390000000     0.743980000000     0.906110000000    -0.514321   
O24      O      0.405600000000     0.738890000000     0.947210000000    -0.515471   
O25      O      0.405650000000     0.738810000000     0.077390000000    -0.515328   
O26      O      0.389860000000     0.776280000000     0.078670000000    -0.485598   
O27      O      0.387920000000     0.716570000000     0.128700000000    -0.490331   
O28      O      0.438480000000     0.736760000000     0.127260000000    -0.485397   
O29      O      0.388430000000     0.796450000000     0.129230000000    -0.49058    
O30      O      0.439740000000     0.774240000000     0.111470000000    -0.51528    
O31      O      0.359470000000     0.743870000000     0.118540000000    -0.514039   
O32      O      0.398620000000     0.769160000000     0.157670000000    -0.51431    
O33      O      0.737050000000     0.407420000000     0.947040000000    -0.515334   
O34      O      0.774530000000     0.391630000000     0.945760000000    -0.485238   
O35      O      0.714820000000     0.389710000000     0.895720000000    -0.490585   
O36      O      0.735010000000     0.440270000000     0.897190000000    -0.485449   
O37      O      0.794690000000     0.390210000000     0.895190000000    -0.490689   
O38      O      0.772490000000     0.441520000000     0.912980000000    -0.515202   
O39      O      0.742110000000     0.361260000000     0.905880000000    -0.51442    
O40      O      0.767400000000     0.400420000000     0.866760000000    -0.514327   
O41      O      0.767490000000     0.400260000000     0.157480000000    -0.51402    
O42      O      0.794790000000     0.390110000000     0.129020000000    -0.490373   
O43      O      0.714910000000     0.389580000000     0.128530000000    -0.490568   
O44      O      0.735090000000     0.440150000000     0.127110000000    -0.485285   
O45      O      0.774570000000     0.391560000000     0.078460000000    -0.485562   
O46      O      0.772560000000     0.441420000000     0.111300000000    -0.515248   
O47      O      0.742200000000     0.361140000000     0.118320000000    -0.51419    
O48      O      0.737100000000     0.407360000000     0.077220000000    -0.515331   
O49      O      0.767390000000     0.612840000000     0.866910000000    -0.514284   
O50      O      0.794680000000     0.623010000000     0.895350000000    -0.490619   
O51      O      0.714800000000     0.623530000000     0.895880000000    -0.490612   
O52      O      0.734990000000     0.572960000000     0.897290000000    -0.48535    
O53      O      0.774500000000     0.621560000000     0.945920000000    -0.485422   
O54      O      0.772470000000     0.571700000000     0.913080000000    -0.515171   
O55      O      0.742100000000     0.651970000000     0.906060000000    -0.514154   
O56      O      0.737030000000     0.605750000000     0.947190000000    -0.515228   
O57      O      0.737090000000     0.605680000000     0.077360000000    -0.515241   
O58      O      0.774560000000     0.621480000000     0.078610000000    -0.485484   
O59      O      0.714890000000     0.623410000000     0.128680000000    -0.490535   
O60      O      0.735090000000     0.572840000000     0.127220000000    -0.48534    
O61      O      0.794770000000     0.622900000000     0.129180000000    -0.490393   
O62      O      0.772560000000     0.571590000000     0.111400000000    -0.515093   
O63      O      0.742180000000     0.651860000000     0.118500000000    -0.514105   
O64      O      0.767480000000     0.612700000000     0.157630000000    -0.514075   
O65      O      0.604020000000     0.941430000000     0.279970000000    -0.515274   
O66      O      0.619810000000     0.940140000000     0.242490000000    -0.485466   
O67      O      0.621760000000     0.890110000000     0.302210000000    -0.490704   
O68      O      0.571190000000     0.891560000000     0.282030000000    -0.485348   
O69      O      0.621250000000     0.889580000000     0.222330000000    -0.490354   
O70      O      0.569930000000     0.907340000000     0.244550000000    -0.515275   
O71      O      0.650200000000     0.900280000000     0.274920000000    -0.514496   
O72      O      0.611050000000     0.861140000000     0.249630000000    -0.513932   
O73      O      0.611100000000     0.151860000000     0.249450000000    -0.514095   
O74      O      0.621250000000     0.123400000000     0.222160000000    -0.490413   
O75      O      0.621780000000     0.122920000000     0.302040000000    -0.490556   
O76      O      0.571210000000     0.121480000000     0.281850000000    -0.485571   
O77      O      0.619810000000     0.072840000000     0.242380000000    -0.485415   
O78      O      0.569940000000     0.105660000000     0.244390000000    -0.51523    
O79      O      0.650220000000     0.112710000000     0.274750000000    -0.514176   
O80      O      0.604010000000     0.071600000000     0.279860000000    -0.515093   
O81      O      0.405710000000     0.071620000000     0.279900000000    -0.51515    
O82      O      0.389900000000     0.072860000000     0.242420000000    -0.485383   
O83      O      0.387950000000     0.122940000000     0.302080000000    -0.490485   
O84      O      0.438520000000     0.121500000000     0.281880000000    -0.485355   
O85      O      0.388460000000     0.123430000000     0.222200000000    -0.490457   
O86      O      0.439770000000     0.105670000000     0.244420000000    -0.515289   
O87      O      0.359510000000     0.112740000000     0.274790000000    -0.514437   
O88      O      0.398640000000     0.151880000000     0.249490000000    -0.514072   
O89      O      0.398640000000     0.861160000000     0.249660000000    -0.514161   
O90      O      0.388440000000     0.889600000000     0.222370000000    -0.490601   
O91      O      0.387930000000     0.890140000000     0.302250000000    -0.490494   
O92      O      0.438500000000     0.891580000000     0.282050000000    -0.485598   
O93      O      0.389880000000     0.940170000000     0.242530000000    -0.485469   
O94      O      0.439760000000     0.907350000000     0.244570000000    -0.515347   
O95      O      0.359490000000     0.900300000000     0.274950000000    -0.514274   
O96      O      0.405680000000     0.941450000000     0.280000000000    -0.515482   
O97      O      0.405610000000     0.274340000000     0.947050000000    -0.515259   
O98      O      0.389810000000     0.236870000000     0.945780000000    -0.485498   
O99      O      0.387850000000     0.296570000000     0.895740000000    -0.490497   
O100     O      0.438410000000     0.276390000000     0.897170000000    -0.485218   
O101     O      0.388350000000     0.216700000000     0.895210000000    -0.490678   
O102     O      0.439670000000     0.238910000000     0.912960000000    -0.51539    
O103     O      0.359400000000     0.269280000000     0.905920000000    -0.51416    
O104     O      0.398550000000     0.243990000000     0.866770000000    -0.514243   
O105     O      0.398620000000     0.243870000000     0.157490000000    -0.514115   
O106     O      0.388450000000     0.216570000000     0.129050000000    -0.49048    
O107     O      0.387930000000     0.296450000000     0.128540000000    -0.49078    
O108     O      0.438500000000     0.276250000000     0.127100000000    -0.485556   
O109     O      0.389870000000     0.236790000000     0.078470000000    -0.485618   
O110     O      0.439750000000     0.238790000000     0.111280000000    -0.515287   
O111     O      0.359490000000     0.269160000000     0.118360000000    -0.514489   
O112     O      0.405680000000     0.274260000000     0.077230000000    -0.515341   
O113     O      0.610960000000     0.243970000000     0.866740000000    -0.514448   
O114     O      0.621160000000     0.216680000000     0.895170000000    -0.490527   
O115     O      0.621670000000     0.296560000000     0.895710000000    -0.490725   
O116     O      0.571110000000     0.276370000000     0.897150000000    -0.485547   
O117     O      0.619730000000     0.236850000000     0.945730000000    -0.485648   
O118     O      0.569850000000     0.238900000000     0.912940000000    -0.51545    
O119     O      0.650120000000     0.269260000000     0.905860000000    -0.514185   
O120     O      0.603940000000     0.274320000000     0.947020000000    -0.515542   
O121     O      0.603990000000     0.274240000000     0.077200000000    -0.515454   
O122     O      0.619790000000     0.236770000000     0.078430000000    -0.485396   
O123     O      0.621760000000     0.296430000000     0.128510000000    -0.490616   
O124     O      0.571190000000     0.276240000000     0.127070000000    -0.485575   
O125     O      0.621240000000     0.216550000000     0.129000000000    -0.490452   
O126     O      0.569930000000     0.238770000000     0.111260000000    -0.515091   
O127     O      0.650200000000     0.269140000000     0.118300000000    -0.514206   
O128     O      0.611080000000     0.243840000000     0.157450000000    -0.514429   
O129     O      0.150210000000     0.400310000000     0.249500000000    -0.514267   
O130     O      0.121770000000     0.390130000000     0.222210000000    -0.490702   
O131     O      0.121260000000     0.389600000000     0.302080000000    -0.49069    
O132     O      0.119810000000     0.440160000000     0.281920000000    -0.485492   
O133     O      0.071210000000     0.391570000000     0.242380000000    -0.485301   
O134     O      0.104020000000     0.441450000000     0.244450000000    -0.515321   
O135     O      0.111060000000     0.361160000000     0.274790000000    -0.514264   
O136     O      0.069940000000     0.407350000000     0.279870000000    -0.51535    
O137     O      0.939760000000     0.407340000000     0.279840000000    -0.515154   
O138     O      0.938510000000     0.391560000000     0.242350000000    -0.485177   
O139     O      0.888440000000     0.389580000000     0.302040000000    -0.490349   
O140     O      0.889890000000     0.440140000000     0.281880000000    -0.485449   
O141     O      0.887940000000     0.390120000000     0.222160000000    -0.490636   
O142     O      0.905690000000     0.441430000000     0.244410000000    -0.515184   
O143     O      0.898650000000     0.361140000000     0.274740000000    -0.514206   
O144     O      0.859500000000     0.400270000000     0.249460000000    -0.51439    
O145     O      0.859480000000     0.612710000000     0.249620000000    -0.514211   
O146     O      0.887920000000     0.622910000000     0.222330000000    -0.490667   
O147     O      0.888440000000     0.623410000000     0.302210000000    -0.490509   
O148     O      0.889880000000     0.572830000000     0.281980000000    -0.48555    
O149     O      0.938490000000     0.621480000000     0.242530000000    -0.485538   
O150     O      0.905690000000     0.571600000000     0.244510000000    -0.515175   
O151     O      0.898610000000     0.651860000000     0.274920000000    -0.514149   
O152     O      0.939750000000     0.605660000000     0.279990000000    -0.515367   
O153     O      0.069920000000     0.605680000000     0.280020000000    -0.515216   
O154     O      0.071190000000     0.621490000000     0.242550000000    -0.485316   
O155     O      0.121230000000     0.623430000000     0.302250000000    -0.49048    
O156     O      0.119800000000     0.572860000000     0.282030000000    -0.485338   
O157     O      0.121760000000     0.622940000000     0.222370000000    -0.490506   
O158     O      0.104000000000     0.571620000000     0.244550000000    -0.515154   
O159     O      0.111070000000     0.651880000000     0.274950000000    -0.514042   
O160     O      0.150200000000     0.612730000000     0.249660000000    -0.514131   
O161     O      0.272490000000     0.605760000000     0.947190000000    -0.515199   
O162     O      0.235020000000     0.621570000000     0.945950000000    -0.485454   
O163     O      0.294690000000     0.623550000000     0.895880000000    -0.490502   
O164     O      0.274500000000     0.572980000000     0.897290000000    -0.485427   
O165     O      0.214810000000     0.623020000000     0.895380000000    -0.490592   
O166     O      0.237030000000     0.571710000000     0.913100000000    -0.515394   
O167     O      0.267400000000     0.651980000000     0.906090000000    -0.514246   
O168     O      0.242100000000     0.612860000000     0.866930000000    -0.514428   
O169     O      0.242180000000     0.612720000000     0.157650000000    -0.514013   
O170     O      0.214890000000     0.622930000000     0.129210000000    -0.490518   
O171     O      0.294770000000     0.623430000000     0.128680000000    -0.490369   
O172     O      0.237100000000     0.571610000000     0.111430000000    -0.515277   
O173     O      0.235060000000     0.621500000000     0.078640000000    -0.485355   
O174     O      0.274580000000     0.572860000000     0.127220000000    -0.485256   
O175     O      0.267470000000     0.651880000000     0.118520000000    -0.513935   
O176     O      0.272540000000     0.605710000000     0.077360000000    -0.515243   
O177     O      0.272560000000     0.407380000000     0.077230000000    -0.515379   
O178     O      0.235090000000     0.391580000000     0.078490000000    -0.485573   
O179     O      0.294790000000     0.389610000000     0.128530000000    -0.490492   
O180     O      0.274600000000     0.440170000000     0.127120000000    -0.485354   
O181     O      0.214910000000     0.390120000000     0.129060000000    -0.49054    
O182     O      0.237120000000     0.441440000000     0.111330000000    -0.515069   
O183     O      0.267500000000     0.361160000000     0.118350000000    -0.514157   
O184     O      0.242210000000     0.400290000000     0.157500000000    -0.514282   
O185     O      0.242100000000     0.400420000000     0.866790000000    -0.514561   
O186     O      0.214820000000     0.390220000000     0.895230000000    -0.490613   
O187     O      0.294690000000     0.389720000000     0.895730000000    -0.490577   
O188     O      0.274500000000     0.440290000000     0.897190000000    -0.48539    
O189     O      0.235020000000     0.391650000000     0.945800000000    -0.485176   
O190     O      0.237030000000     0.441530000000     0.913010000000    -0.515286   
O191     O      0.267400000000     0.361270000000     0.905910000000    -0.514166   
O192     O      0.272500000000     0.407450000000     0.947050000000    -0.515163   
O193     O      0.859400000000     0.769260000000     0.618490000000    -0.514047   
O194     O      0.887840000000     0.796560000000     0.628670000000    -0.490554   
O195     O      0.888340000000     0.716680000000     0.629190000000    -0.490215   
O196     O      0.889800000000     0.736850000000     0.578630000000    -0.485202   
O197     O      0.938410000000     0.776370000000     0.627230000000    -0.48563    
O198     O      0.905600000000     0.774330000000     0.577360000000    -0.51505    
O199     O      0.898540000000     0.743970000000     0.657640000000    -0.514113   
O200     O      0.939670000000     0.738890000000     0.611450000000    -0.515304   
O201     O      0.069840000000     0.738900000000     0.611460000000    -0.515249   
O202     O      0.071100000000     0.776380000000     0.627250000000    -0.485624   
O203     O      0.121160000000     0.716700000000     0.629230000000    -0.490633   
O204     O      0.119730000000     0.736860000000     0.578670000000    -0.485351   
O205     O      0.121660000000     0.796570000000     0.628690000000    -0.490667   
O206     O      0.103930000000     0.774330000000     0.577380000000    -0.515239   
O207     O      0.110960000000     0.743990000000     0.657670000000    -0.514282   
O208     O      0.150110000000     0.769280000000     0.618540000000    -0.514266   
O209     O      0.939740000000     0.738770000000     0.413130000000    -0.515289   
O210     O      0.938480000000     0.776240000000     0.397310000000    -0.485282   
O211     O      0.888440000000     0.716550000000     0.395370000000    -0.490612   
O212     O      0.889860000000     0.736760000000     0.445940000000    -0.485432   
O213     O      0.887910000000     0.796430000000     0.395870000000    -0.490506   
O214     O      0.905660000000     0.774230000000     0.447180000000    -0.515466   
O215     O      0.898600000000     0.743840000000     0.366920000000    -0.514297   
O216     O      0.859470000000     0.769140000000     0.406060000000    -0.514218   
O217     O      0.150190000000     0.769170000000     0.406100000000    -0.514335   
O218     O      0.121750000000     0.796450000000     0.395890000000    -0.49064    
O219     O      0.121230000000     0.716580000000     0.395400000000    -0.490518   
O220     O      0.119780000000     0.736790000000     0.445970000000    -0.485606   
O221     O      0.071180000000     0.776260000000     0.397330000000    -0.485395   
O222     O      0.103980000000     0.774260000000     0.447210000000    -0.515569   
O223     O      0.111060000000     0.743870000000     0.366950000000    -0.514071   
O224     O      0.069920000000     0.738790000000     0.413140000000    -0.515286   
O225     O      0.069840000000     0.407470000000     0.744420000000    -0.515311   
O226     O      0.071090000000     0.391640000000     0.781880000000    -0.485376   
O227     O      0.121150000000     0.389720000000     0.722200000000    -0.490311   
O228     O      0.119710000000     0.440290000000     0.742430000000    -0.485537   
O229     O      0.121670000000     0.390210000000     0.802080000000    -0.490673   
O230     O      0.103900000000     0.441520000000     0.779900000000    -0.515202   
O231     O      0.110980000000     0.361270000000     0.749500000000    -0.51421    
O232     O      0.150110000000     0.400410000000     0.774790000000    -0.514245   
O233     O      0.859390000000     0.400400000000     0.774750000000    -0.514246   
O234     O      0.887830000000     0.390190000000     0.802030000000    -0.4907     
O235     O      0.888360000000     0.389700000000     0.722160000000    -0.490861   
O236     O      0.889790000000     0.440270000000     0.742380000000    -0.485611   
O237     O      0.938400000000     0.391640000000     0.781850000000    -0.48558    
O238     O      0.905590000000     0.441510000000     0.779850000000    -0.515449   
O239     O      0.898520000000     0.361260000000     0.749450000000    -0.514535   
O240     O      0.939660000000     0.407450000000     0.744390000000    -0.515601   
O241     O      0.939660000000     0.605780000000     0.744540000000    -0.515106   
O242     O      0.938390000000     0.621550000000     0.782030000000    -0.485382   
O243     O      0.888330000000     0.623530000000     0.722330000000    -0.490505   
O244     O      0.889780000000     0.572970000000     0.742490000000    -0.485472   
O245     O      0.887830000000     0.623000000000     0.802210000000    -0.490224   
O246     O      0.905570000000     0.571680000000     0.779960000000    -0.515275   
O247     O      0.898530000000     0.651970000000     0.749630000000    -0.51422    
O248     O      0.859380000000     0.612830000000     0.774910000000    -0.514105   
O249     O      0.150100000000     0.612850000000     0.774950000000    -0.514304   
O250     O      0.121650000000     0.623000000000     0.802240000000    -0.490872   
O251     O      0.121150000000     0.623550000000     0.722370000000    -0.490618   
O252     O      0.119710000000     0.572980000000     0.742530000000    -0.485425   
O253     O      0.071080000000     0.621560000000     0.782050000000    -0.485404   
O254     O      0.103910000000     0.571690000000     0.780000000000    -0.51531    
O255     O      0.110940000000     0.651980000000     0.749660000000    -0.514302   
O256     O      0.069830000000     0.605780000000     0.744570000000    -0.515324   
O257     O      0.242210000000     0.151880000000     0.405910000000    -0.513999   
O258     O      0.214920000000     0.123430000000     0.395730000000    -0.490526   
O259     O      0.294790000000     0.122920000000     0.395230000000    -0.490441   
O260     O      0.274590000000     0.121500000000     0.445800000000    -0.485237   
O261     O      0.235100000000     0.072870000000     0.397190000000    -0.485399   
O262     O      0.237110000000     0.105700000000     0.447050000000    -0.515192   
O263     O      0.267500000000     0.112730000000     0.366780000000    -0.514141   
O264     O      0.272570000000     0.071610000000     0.413000000000    -0.51536    
O265     O      0.272550000000     0.941440000000     0.413100000000    -0.515392   
O266     O      0.235080000000     0.940170000000     0.397290000000    -0.485428   
O267     O      0.294770000000     0.890130000000     0.395380000000    -0.490588   
O268     O      0.274560000000     0.891580000000     0.445950000000    -0.485467   
O269     O      0.214890000000     0.889600000000     0.395880000000    -0.490525   
O270     O      0.237090000000     0.907390000000     0.447190000000    -0.515213   
O271     O      0.267480000000     0.900290000000     0.366930000000    -0.514418   
O272     O      0.242180000000     0.861170000000     0.406080000000    -0.51431    
O273     O      0.242110000000     0.861270000000     0.618520000000    -0.514005   
O274     O      0.214810000000     0.889720000000     0.628680000000    -0.490264   
O275     O      0.294690000000     0.890220000000     0.629210000000    -0.49043    
O276     O      0.274520000000     0.891650000000     0.578640000000    -0.485411   
O277     O      0.235000000000     0.940290000000     0.627220000000    -0.485179   
O278     O      0.237040000000     0.907440000000     0.577360000000    -0.515212   
O279     O      0.267390000000     0.900430000000     0.657650000000    -0.513974   
O280     O      0.272480000000     0.941530000000     0.611430000000    -0.515521   
O281     O      0.272480000000     0.071710000000     0.611330000000    -0.51539    
O282     O      0.235000000000     0.072980000000     0.627110000000    -0.485557   
O283     O      0.294690000000     0.123030000000     0.629060000000    -0.490769   
O284     O      0.274520000000     0.121570000000     0.578490000000    -0.485439   
O285     O      0.214820000000     0.123540000000     0.628530000000    -0.490512   
O286     O      0.237050000000     0.105770000000     0.577220000000    -0.515408   
O287     O      0.267400000000     0.112850000000     0.657500000000    -0.514313   
O288     O      0.242110000000     0.151980000000     0.618350000000    -0.514317   
O289     O      0.069930000000     0.274240000000     0.412960000000    -0.515182   
O290     O      0.071200000000     0.236750000000     0.397180000000    -0.485418   
O291     O      0.121250000000     0.296450000000     0.395220000000    -0.490408   
O292     O      0.119800000000     0.276280000000     0.445780000000    -0.485142   
O293     O      0.121760000000     0.216570000000     0.395740000000    -0.490419   
O294     O      0.104000000000     0.238800000000     0.447050000000    -0.515202   
O295     O      0.111060000000     0.269160000000     0.366780000000    -0.514472   
O296     O      0.150200000000     0.243870000000     0.405920000000    -0.514248   
O297     O      0.859490000000     0.243850000000     0.405870000000    -0.514061   
O298     O      0.887940000000     0.216550000000     0.395710000000    -0.490348   
O299     O      0.888440000000     0.296430000000     0.395170000000    -0.49063    
O300     O      0.889870000000     0.276260000000     0.445740000000    -0.485488   
O301     O      0.938500000000     0.236750000000     0.397150000000    -0.485546   
O302     O      0.905670000000     0.238790000000     0.447020000000    -0.515307   
O303     O      0.898650000000     0.269140000000     0.366740000000    -0.514311   
O304     O      0.939760000000     0.274220000000     0.412940000000    -0.515546   
O305     O      0.939680000000     0.274340000000     0.611270000000    -0.515373   
O306     O      0.938420000000     0.236870000000     0.627080000000    -0.485462   
O307     O      0.888360000000     0.296560000000     0.629010000000    -0.490337   
O308     O      0.889820000000     0.276340000000     0.578430000000    -0.48539    
O309     O      0.887850000000     0.216680000000     0.628510000000    -0.49042    
O310     O      0.905620000000     0.238870000000     0.577200000000    -0.51543    
O311     O      0.898530000000     0.269260000000     0.657460000000    -0.513988   
O312     O      0.859410000000     0.243970000000     0.618300000000    -0.514156   
O313     O      0.150120000000     0.243990000000     0.618360000000    -0.51419    
O314     O      0.121680000000     0.216690000000     0.628550000000    -0.490408   
O315     O      0.121150000000     0.296570000000     0.629050000000    -0.490797   
O316     O      0.119730000000     0.276360000000     0.578480000000    -0.485423   
O317     O      0.071110000000     0.236880000000     0.627100000000    -0.485354   
O318     O      0.103930000000     0.238890000000     0.577230000000    -0.51534    
O319     O      0.110990000000     0.269280000000     0.657490000000    -0.514591   
O320     O      0.069850000000     0.274350000000     0.611280000000    -0.515255   
O321     O      0.737030000000     0.941520000000     0.611410000000    -0.515344   
O322     O      0.774500000000     0.940260000000     0.627220000000    -0.485406   
O323     O      0.714810000000     0.890210000000     0.629190000000    -0.490605   
O324     O      0.735010000000     0.891630000000     0.578620000000    -0.485352   
O325     O      0.794690000000     0.889700000000     0.628690000000    -0.490321   
O326     O      0.772490000000     0.907430000000     0.577370000000    -0.515342   
O327     O      0.742100000000     0.900400000000     0.657630000000    -0.514235   
O328     O      0.767400000000     0.861250000000     0.618510000000    -0.514194   
O329     O      0.767410000000     0.151960000000     0.618320000000    -0.514256   
O330     O      0.794700000000     0.123530000000     0.628530000000    -0.490605   
O331     O      0.714820000000     0.123000000000     0.629020000000    -0.490363   
O332     O      0.735030000000     0.121550000000     0.578460000000    -0.485214   
O333     O      0.774510000000     0.072960000000     0.627120000000    -0.48539    
O334     O      0.772510000000     0.105740000000     0.577220000000    -0.515203   
O335     O      0.742110000000     0.112850000000     0.657480000000    -0.51412    
O336     O      0.737040000000     0.071690000000     0.611300000000    -0.515252   
O337     O      0.737120000000     0.071590000000     0.412980000000    -0.515287   
O338     O      0.774600000000     0.072840000000     0.397190000000    -0.485331   
O339     O      0.714920000000     0.122900000000     0.395190000000    -0.490662   
O340     O      0.735080000000     0.121480000000     0.445760000000    -0.48518    
O341     O      0.794790000000     0.123400000000     0.395730000000    -0.490692   
O342     O      0.772560000000     0.105680000000     0.447050000000    -0.515058   
O343     O      0.742210000000     0.112690000000     0.366760000000    -0.514307   
O344     O      0.767500000000     0.151850000000     0.405880000000    -0.514507   
O345     O      0.767480000000     0.861140000000     0.406070000000    -0.514093   
O346     O      0.794780000000     0.889580000000     0.395880000000    -0.490561   
O347     O      0.714900000000     0.890100000000     0.395360000000    -0.490407   
O348     O      0.735080000000     0.891550000000     0.445920000000    -0.485503   
O349     O      0.774600000000     0.940140000000     0.397300000000    -0.485345   
O350     O      0.772550000000     0.907350000000     0.447190000000    -0.51527    
O351     O      0.742200000000     0.900270000000     0.366910000000    -0.514091   
O352     O      0.737120000000     0.941420000000     0.413080000000    -0.515351   
O353     O      0.405580000000     0.941520000000     0.744550000000    -0.515221   
O354     O      0.389790000000     0.940290000000     0.782030000000    -0.485379   
O355     O      0.387820000000     0.890210000000     0.722370000000    -0.490638   
O356     O      0.438390000000     0.891650000000     0.742560000000    -0.485604   
O357     O      0.388350000000     0.889720000000     0.802250000000    -0.490673   
O358     O      0.439650000000     0.907470000000     0.780020000000    -0.515325   
O359     O      0.359380000000     0.900420000000     0.749660000000    -0.51423    
O360     O      0.398510000000     0.861270000000     0.774960000000    -0.514413   
O361     O      0.398540000000     0.151980000000     0.774790000000    -0.514395   
O362     O      0.388340000000     0.123550000000     0.802080000000    -0.490695   
O363     O      0.387840000000     0.123010000000     0.722210000000    -0.490538   
O364     O      0.439660000000     0.105790000000     0.779870000000    -0.515333   
O365     O      0.389780000000     0.072980000000     0.781920000000    -0.485442   
O366     O      0.438400000000     0.121570000000     0.742380000000    -0.485151   
O367     O      0.359390000000     0.112840000000     0.749500000000    -0.514199   
O368     O      0.405580000000     0.071700000000     0.744450000000    -0.515369   
O369     O      0.610960000000     0.861260000000     0.774920000000    -0.514321   
O370     O      0.621140000000     0.889710000000     0.802210000000    -0.490503   
O371     O      0.621660000000     0.890200000000     0.722330000000    -0.490526   
O372     O      0.571080000000     0.891640000000     0.742530000000    -0.485306   
O373     O      0.619700000000     0.940280000000     0.781990000000    -0.485472   
O374     O      0.569830000000     0.907460000000     0.780000000000    -0.515129   
O375     O      0.650100000000     0.900390000000     0.749620000000    -0.514218   
O376     O      0.603900000000     0.941510000000     0.744520000000    -0.515415   
O377     O      0.603910000000     0.071680000000     0.744410000000    -0.515216   
O378     O      0.619710000000     0.072970000000     0.781880000000    -0.485476   
O379     O      0.621660000000     0.122990000000     0.722160000000    -0.490666   
O380     O      0.571090000000     0.121550000000     0.742350000000    -0.485283   
O381     O      0.621160000000     0.123530000000     0.802030000000    -0.490615   
O382     O      0.569840000000     0.105780000000     0.779840000000    -0.515248   
O383     O      0.650100000000     0.112840000000     0.749460000000    -0.514408   
O384     O      0.610950000000     0.151970000000     0.774740000000    -0.514256   


