data_structure

_audit_creation_method RASPA-1.0
_audit_creation_date 2023-6-5
_audit_author_name 'Poobodin Mano'

_cell_length_a    31.6732
_cell_length_b    30.1617
_cell_length_c    35.1204
_cell_angle_alpha 89.5559
_cell_angle_beta  90.4441
_cell_angle_gamma 89.9991
_cell_volume      33549.1

_symmetry_cell_setting          triclinic
_symmetry_space_group_name_Hall 'P 1'
_symmetry_space_group_name_H-M  'P 1'
_symmetry_Int_Tables_number     1

_symmetry_equiv_pos_as_xyz 'x,y,z'

loop_
_atom_site_label
_atom_site_type_symbol
_atom_site_fract_x
_atom_site_fract_y
_atom_site_fract_z
_atom_site_charge
C1       C      0.327900000000     0.434680000000     0.987250000000     0.411447   
C2       C      0.295430000000     0.310090000000     0.417990000000     0.411506   
C3       C      0.417240000000     0.329810000000     0.476530000000     0.414599   
C4       C      0.293270000000     0.311490000000     0.041560000000     0.411101   
C5       C      0.326940000000     0.617660000000     0.487530000000     0.444825   
C6       C      0.290020000000     0.740950000000     0.040280000000     0.441884   
C7       C      0.414670000000     0.724200000000     0.976570000000     0.41603    
C8       C      0.293280000000     0.741510000000     0.416590000000     0.413229   
C9       C      0.591160000000     0.330810000000     0.976680000000     0.441034   
C10      C      0.712680000000     0.313510000000     0.417680000000     0.412642   
C11      C      0.679380000000     0.437300000000     0.487050000000     0.41594    
C12      C      0.715760000000     0.314100000000     0.041440000000     0.44175    
C13      C      0.678020000000     0.620280000000     0.988200000000     0.439857   
C14      C      0.710450000000     0.744820000000     0.418540000000     0.41062    
C15      C      0.588550000000     0.726010000000     0.477410000000     0.44885    
C16      C      0.711930000000     0.744570000000     0.042260000000     0.442511   
C17      C      0.827480000000     0.120230000000     0.224180000000     0.413629   
C18      C      0.795280000000     0.245080000000     0.293190000000     0.440545   
C19      C      0.917130000000     0.225190000000     0.235150000000     0.417084   
C20      C      0.793610000000     0.244060000000     0.169660000000     0.413534   
C21      C      0.914910000000     0.830560000000     0.233730000000     0.417497   
C22      C      0.793420000000     0.813660000000     0.293500000000     0.441393   
C23      C      0.826780000000     0.937240000000     0.223310000000     0.444047   
C24      C      0.790580000000     0.813610000000     0.169600000000     0.412702   
C25      C      0.088810000000     0.830080000000     0.232360000000     0.446781   
C26      C      0.211710000000     0.811120000000     0.166260000000     0.413818   
C27      C      0.178420000000     0.935000000000     0.220270000000     0.413768   
C28      C      0.211310000000     0.810120000000     0.289820000000     0.442913   
C29      C      0.091010000000     0.223950000000     0.233710000000     0.447229   
C30      C      0.213120000000     0.240770000000     0.292580000000     0.439603   
C31      C      0.179000000000     0.117950000000     0.221340000000     0.442038   
C32      C      0.214570000000     0.242480000000     0.168730000000     0.442283   
C33      C      0.213100000000     0.003000000000     0.233880000000     0.0282138  
C34      C      0.147400000000     0.003520000000     0.201790000000    -0.0691198  
C35      C      0.213100000000     0.049320000000     0.234070000000     0.0553442  
C36      C      0.147310000000     0.049810000000     0.201930000000     0.382083   
C37      C      0.979260000000     0.819840000000     0.201100000000     0.0321911  
C38      C      0.980180000000     0.829100000000     0.267720000000    -0.0664719  
C39      C      0.023260000000     0.819750000000     0.200880000000     0.057581   
C40      C      0.024370000000     0.829020000000     0.267600000000     0.383105   
C41      C      0.792830000000     0.051810000000     0.236870000000     0.0283187  
C42      C      0.858420000000     0.052270000000     0.205520000000    -0.0698734  
C43      C      0.792780000000     0.005480000000     0.236520000000     0.0562096  
C44      C      0.858470000000     0.005990000000     0.205140000000     0.382708   
C45      C      0.982650000000     0.222650000000     0.268690000000     0.0299456  
C46      C      0.981310000000     0.238650000000     0.202850000000    -0.0662829  
C47      C      0.026790000000     0.222400000000     0.268170000000     0.0576817  
C48      C      0.025340000000     0.238440000000     0.202230000000     0.388412   
C49      C      0.734170000000     0.738070000000     0.354850000000     0.0265933  
C50      C      0.748460000000     0.803440000000     0.389050000000    -0.0711064  
C51      C      0.755440000000     0.755480000000     0.323440000000     0.0525735  
C52      C      0.769770000000     0.820970000000     0.357650000000     0.381226   
C53      C      0.781620000000     0.755560000000     0.124990000000     0.0288366  
C54      C      0.740270000000     0.820370000000     0.119420000000    -0.0687646  
C55      C      0.761810000000     0.738320000000     0.092700000000     0.0553725  
C56      C      0.720370000000     0.803210000000     0.087090000000     0.385221   
C57      C      0.749860000000     0.254910000000     0.388060000000     0.0259531  
C58      C      0.736810000000     0.321360000000     0.354130000000    -0.06994    
C59      C      0.770980000000     0.237890000000     0.356630000000     0.0529031  
C60      C      0.757930000000     0.304430000000     0.322620000000     0.379003   
C61      C      0.743310000000     0.238480000000     0.119450000000     0.0290824  
C62      C      0.786110000000     0.302240000000     0.124220000000    -0.0655198  
C63      C      0.723900000000     0.256250000000     0.086950000000     0.0571106  
C64      C      0.766720000000     0.320130000000     0.091700000000     0.383068   
C65      C      0.713290000000     0.506170000000     0.474550000000     0.0305619  
C66      C      0.647590000000     0.504830000000     0.005690000000    -0.0664795  
C67      C      0.712840000000     0.552490000000     0.474980000000     0.0549332  
C68      C      0.647020000000     0.551100000000     0.006160000000     0.383087   
C69      C      0.257260000000     0.800570000000     0.385230000000     0.0270658  
C70      C      0.268640000000     0.733360000000     0.352990000000    -0.0691349  
C71      C      0.236360000000     0.817660000000     0.353210000000     0.0555363  
C72      C      0.247720000000     0.750360000000     0.320880000000     0.381253   
C73      C      0.262330000000     0.816490000000     0.116940000000     0.0280638  
C74      C      0.218950000000     0.753130000000     0.121430000000    -0.0660942  
C75      C      0.281900000000     0.798680000000     0.085040000000     0.055499   
C76      C      0.238500000000     0.735190000000     0.089500000000     0.382718   
C77      C      0.479480000000     0.724760000000     0.442790000000     0.0298301  
C78      C      0.479320000000     0.737070000000     0.009030000000    -0.0635982  
C79      C      0.523630000000     0.725340000000     0.443140000000     0.0573199  
C80      C      0.523370000000     0.737670000000     0.009480000000     0.389801   
C81      C      0.270110000000     0.317430000000     0.354450000000     0.0269731  
C82      C      0.259700000000     0.250360000000     0.388070000000    -0.0712208  
C83      C      0.249070000000     0.299860000000     0.322920000000     0.0521243  
C84      C      0.238620000000     0.232670000000     0.356540000000     0.379818   
C85      C      0.285220000000     0.254050000000     0.087540000000     0.0284231  
C86      C      0.242350000000     0.317870000000     0.090480000000    -0.068913   
C87      C      0.265370000000     0.236830000000     0.119780000000     0.0548051  
C88      C      0.222430000000     0.300730000000     0.122760000000     0.384667   
C89      C      0.481900000000     0.331660000000     0.442540000000     0.0264642  
C90      C      0.482260000000     0.316830000000     0.008570000000    -0.0686418  
C91      C      0.526040000000     0.331820000000     0.442710000000     0.052818   
C92      C      0.526320000000     0.316950000000     0.008850000000     0.382596   
C93      C      0.293370000000     0.503000000000     0.973620000000     0.0290107  
C94      C      0.358640000000     0.502750000000     0.506420000000    -0.0689658  
C95      C      0.293240000000     0.549310000000     0.973830000000     0.0574488  
C96      C      0.358620000000     0.549040000000     0.506660000000     0.383452   
C97      C      0.327900000000     0.434680000000     0.487250000000     0.413548   
C98      C      0.295430000000     0.310090000000     0.917990000000     0.411414   
C99      C      0.417240000000     0.329810000000     0.976530000000     0.412534   
C100     C      0.293270000000     0.311490000000     0.541560000000     0.411299   
C101     C      0.326940000000     0.617660000000     0.987530000000     0.44272    
C102     C      0.290020000000     0.740950000000     0.540290000000     0.442069   
C103     C      0.414670000000     0.724200000000     0.476570000000     0.418138   
C104     C      0.293280000000     0.741510000000     0.916590000000     0.413153   
C105     C      0.591160000000     0.330810000000     0.476680000000     0.443097   
C106     C      0.712680000000     0.313510000000     0.917680000000     0.41266    
C107     C      0.679380000000     0.437300000000     0.987060000000     0.415805   
C108     C      0.715750000000     0.314100000000     0.541440000000     0.441852   
C109     C      0.678020000000     0.620280000000     0.488200000000     0.441958   
C110     C      0.710450000000     0.744820000000     0.918540000000     0.410628   
C111     C      0.588550000000     0.726010000000     0.977420000000     0.446743   
C112     C      0.711930000000     0.744570000000     0.542260000000     0.44293    
C113     C      0.827480000000     0.120230000000     0.724180000000     0.413606   
C114     C      0.795280000000     0.245080000000     0.793190000000     0.440617   
C115     C      0.917130000000     0.225190000000     0.735150000000     0.417075   
C116     C      0.793610000000     0.244060000000     0.669670000000     0.413504   
C117     C      0.914910000000     0.830560000000     0.733730000000     0.417768   
C118     C      0.793420000000     0.813660000000     0.793500000000     0.441166   
C119     C      0.826780000000     0.937240000000     0.723310000000     0.444009   
C120     C      0.790570000000     0.813620000000     0.669600000000     0.412971   
C121     C      0.088800000000     0.830080000000     0.732360000000     0.446785   
C122     C      0.211710000000     0.811120000000     0.666260000000     0.413965   
C123     C      0.178420000000     0.935000000000     0.720270000000     0.413742   
C124     C      0.211310000000     0.810120000000     0.789820000000     0.442896   
C125     C      0.091010000000     0.223950000000     0.733710000000     0.447222   
C126     C      0.213120000000     0.240770000000     0.792580000000     0.439569   
C127     C      0.179000000000     0.117950000000     0.721340000000     0.442016   
C128     C      0.214570000000     0.242480000000     0.668730000000     0.442261   
C129     C      0.213100000000     0.003000000000     0.733880000000     0.0281699  
C130     C      0.147400000000     0.003520000000     0.701790000000    -0.069165   
C131     C      0.213100000000     0.049320000000     0.734070000000     0.0552992  
C132     C      0.147310000000     0.049810000000     0.701930000000     0.382031   
C133     C      0.979270000000     0.819840000000     0.701100000000     0.0321248  
C134     C      0.980180000000     0.829100000000     0.767720000000    -0.0665002  
C135     C      0.023260000000     0.819760000000     0.700880000000     0.0575615  
C136     C      0.024370000000     0.829020000000     0.767600000000     0.383079   
C137     C      0.792830000000     0.051810000000     0.736870000000     0.0282925  
C138     C      0.858420000000     0.052270000000     0.705520000000    -0.0698544  
C139     C      0.792780000000     0.005480000000     0.736520000000     0.0561382  
C140     C      0.858470000000     0.005990000000     0.705140000000     0.38251    
C141     C      0.982650000000     0.222650000000     0.768690000000     0.029922   
C142     C      0.981310000000     0.238650000000     0.702850000000    -0.0663196  
C143     C      0.026800000000     0.222400000000     0.768170000000     0.057649   
C144     C      0.025340000000     0.238440000000     0.702230000000     0.388368   
C145     C      0.734170000000     0.738070000000     0.854850000000     0.0265683  
C146     C      0.748460000000     0.803440000000     0.889050000000    -0.0711551  
C147     C      0.755440000000     0.755480000000     0.823430000000     0.0525082  
C148     C      0.769770000000     0.820960000000     0.857650000000     0.381045   
C149     C      0.781620000000     0.755560000000     0.624990000000     0.0287672  
C150     C      0.740270000000     0.820370000000     0.619420000000    -0.06884    
C151     C      0.761810000000     0.738320000000     0.592700000000     0.0553223  
C152     C      0.720370000000     0.803210000000     0.587090000000     0.385078   
C153     C      0.749860000000     0.254910000000     0.888060000000     0.0258734  
C154     C      0.736810000000     0.321360000000     0.854130000000    -0.0700043  
C155     C      0.770980000000     0.237890000000     0.856620000000     0.0528515  
C156     C      0.757930000000     0.304430000000     0.822620000000     0.378986   
C157     C      0.743310000000     0.238480000000     0.619450000000     0.0290332  
C158     C      0.786110000000     0.302240000000     0.624220000000    -0.0656244  
C159     C      0.723900000000     0.256250000000     0.586950000000     0.0569963  
C160     C      0.766720000000     0.320130000000     0.591700000000     0.382978   
C161     C      0.713290000000     0.506170000000     0.974550000000     0.0303445  
C162     C      0.647590000000     0.504830000000     0.505690000000    -0.0677989  
C163     C      0.712840000000     0.552490000000     0.974980000000     0.054598   
C164     C      0.647020000000     0.551100000000     0.506160000000     0.382094   
C165     C      0.257260000000     0.800570000000     0.885240000000     0.026939   
C166     C      0.268640000000     0.733360000000     0.852990000000    -0.0690961  
C167     C      0.236360000000     0.817660000000     0.853210000000     0.0555024  
C168     C      0.247720000000     0.750360000000     0.820880000000     0.381181   
C169     C      0.262330000000     0.816490000000     0.616930000000     0.027954   
C170     C      0.218950000000     0.753130000000     0.621430000000    -0.0661623  
C171     C      0.281900000000     0.798680000000     0.585040000000     0.0554377  
C172     C      0.238500000000     0.735190000000     0.589500000000     0.382631   
C173     C      0.479480000000     0.724760000000     0.942790000000     0.029438   
C174     C      0.479320000000     0.737070000000     0.509030000000    -0.0647739  
C175     C      0.523630000000     0.725340000000     0.943150000000     0.0571613  
C176     C      0.523370000000     0.737670000000     0.509480000000     0.388834   
C177     C      0.270110000000     0.317430000000     0.854450000000     0.0269167  
C178     C      0.259700000000     0.250360000000     0.888060000000    -0.0713233  
C179     C      0.249070000000     0.299860000000     0.822920000000     0.0520929  
C180     C      0.238620000000     0.232670000000     0.856540000000     0.379775   
C181     C      0.285220000000     0.254050000000     0.587540000000     0.0283435  
C182     C      0.242350000000     0.317870000000     0.590480000000    -0.0689904  
C183     C      0.265370000000     0.236830000000     0.619780000000     0.0547263  
C184     C      0.222430000000     0.300730000000     0.622760000000     0.384582   
C185     C      0.481900000000     0.331670000000     0.942540000000     0.0261542  
C186     C      0.482260000000     0.316830000000     0.508570000000    -0.0698129  
C187     C      0.526040000000     0.331820000000     0.942710000000     0.0526206  
C188     C      0.526320000000     0.316950000000     0.508850000000     0.381662   
C189     C      0.293370000000     0.503000000000     0.473620000000     0.0293099  
C190     C      0.358640000000     0.502750000000     0.006420000000    -0.0678429  
C191     C      0.293240000000     0.549310000000     0.473830000000     0.0577527  
C192     C      0.358620000000     0.549040000000     0.006660000000     0.384497   
F1       F      0.113880000000     0.071080000000     0.185560000000    -0.418352   
F2       F      0.045060000000     0.833650000000     0.301380000000    -0.422314   
F3       F      0.891820000000     0.985250000000     0.188890000000    -0.421606   
F4       F      0.044620000000     0.246850000000     0.168480000000    -0.41024    
F5       F      0.786730000000     0.862190000000     0.360770000000    -0.422597   
F6       F      0.690280000000     0.828380000000     0.069560000000    -0.415643   
F7       F      0.760890000000     0.330530000000     0.291030000000    -0.423706   
F8       F      0.779650000000     0.360690000000     0.079330000000    -0.421111   
F9       F      0.613380000000     0.571400000000     0.022340000000    -0.416635   
F10      F      0.244010000000     0.723930000000     0.289870000000    -0.422174   
F11      F      0.225340000000     0.694810000000     0.077260000000    -0.420363   
F12      F      0.543250000000     0.744580000000     0.043360000000    -0.411347   
F13      F      0.223740000000     0.190510000000     0.359290000000    -0.424738   
F14      F      0.191560000000     0.325410000000     0.138930000000    -0.414146   
F15      F      0.546480000000     0.309100000000     0.042540000000    -0.422926   
F16      F      0.391770000000     0.569930000000     0.523560000000    -0.418225   
F17      F      0.113880000000     0.071080000000     0.685560000000    -0.418449   
F18      F      0.045060000000     0.833650000000     0.801380000000    -0.422433   
F19      F      0.891830000000     0.985250000000     0.688890000000    -0.421622   
F20      F      0.044620000000     0.246850000000     0.668480000000    -0.410372   
F21      F      0.786730000000     0.862190000000     0.860770000000    -0.422663   
F22      F      0.690280000000     0.828380000000     0.569560000000    -0.415869   
F23      F      0.760890000000     0.330530000000     0.791030000000    -0.423761   
F24      F      0.779650000000     0.360690000000     0.579330000000    -0.421368   
F25      F      0.613380000000     0.571400000000     0.522340000000    -0.416832   
F26      F      0.244010000000     0.723930000000     0.789870000000    -0.422223   
F27      F      0.225340000000     0.694810000000     0.577260000000    -0.420621   
F28      F      0.543250000000     0.744580000000     0.543360000000    -0.411423   
F29      F      0.223740000000     0.190510000000     0.859290000000    -0.424888   
F30      F      0.191560000000     0.325410000000     0.638930000000    -0.414264   
F31      F      0.546480000000     0.309100000000     0.542540000000    -0.423043   
F32      F      0.391770000000     0.569930000000     0.023560000000    -0.418051   
H1       H      0.239700000000     0.066000000000     0.247290000000     0.0549401  
H2       H      0.239630000000     0.985790000000     0.246940000000     0.0579776  
H3       H      0.120740000000     0.986690000000     0.188790000000     0.114661   
H4       H      0.038830000000     0.816140000000     0.173680000000     0.0557979  
H5       H      0.962780000000     0.816320000000     0.174110000000     0.0626203  
H6       H      0.964260000000     0.833110000000     0.294710000000     0.114188   
H7       H      0.766210000000     0.988380000000     0.249260000000     0.0562682  
H8       H      0.766370000000     0.068630000000     0.249820000000     0.0583315  
H9       H      0.885040000000     0.069470000000     0.192980000000     0.114857   
H10      H      0.043480000000     0.215510000000     0.294640000000     0.0553376  
H11      H      0.966990000000     0.215950000000     0.295470000000     0.0586232  
H12      H      0.964570000000     0.245160000000     0.176330000000     0.117628   
H13      H      0.757330000000     0.735280000000     0.298090000000     0.0509034  
H14      H      0.720640000000     0.705160000000     0.352530000000     0.0574631  
H15      H      0.746470000000     0.823470000000     0.414490000000     0.114817   
H16      H      0.771370000000     0.705710000000     0.083220000000     0.0531539  
H17      H      0.805680000000     0.735630000000     0.139070000000     0.0591366  
H18      H      0.730870000000     0.852970000000     0.129040000000     0.113103   
H19      H      0.783920000000     0.204680000000     0.358950000000     0.0515591  
H20      H      0.747460000000     0.234240000000     0.413350000000     0.0569748  
H21      H      0.723810000000     0.354560000000     0.352000000000     0.111319   
H22      H      0.699420000000     0.236820000000     0.073210000000     0.0569048  
H23      H      0.733130000000     0.206110000000     0.129420000000     0.0585669  
H24      H      0.810620000000     0.321500000000     0.138100000000     0.118609   
H25      H      0.739260000000     0.569950000000     0.462360000000     0.0525637  
H26      H      0.739990000000     0.489700000000     0.461660000000     0.0621194  
H27      H      0.621100000000     0.487270000000     0.018110000000     0.116774   
H28      H      0.224170000000     0.851200000000     0.354650000000     0.0548264  
H29      H      0.260270000000     0.821530000000     0.410070000000     0.0573012  
H30      H      0.280890000000     0.699830000000     0.351770000000     0.112499   
H31      H      0.306670000000     0.817940000000     0.071630000000     0.0527886  
H32      H      0.272720000000     0.848710000000     0.126800000000     0.0569418  
H33      H      0.194160000000     0.734050000000     0.134990000000     0.117576   
H34      H      0.539840000000     0.720230000000     0.416450000000     0.0512631  
H35      H      0.463350000000     0.719260000000     0.415900000000     0.0575247  
H36      H      0.463060000000     0.741780000000     0.035760000000     0.11809    
H37      H      0.245690000000     0.320710000000     0.297780000000     0.0548399  
H38      H      0.281990000000     0.351080000000     0.352400000000     0.0582262  
H39      H      0.263190000000     0.229710000000     0.413320000000     0.109961   
H40      H      0.275530000000     0.204620000000     0.130290000000     0.0512846  
H41      H      0.309890000000     0.234510000000     0.074550000000     0.0589376  
H42      H      0.232340000000     0.350060000000     0.079810000000     0.114297   
H43      H      0.542030000000     0.338200000000     0.416030000000     0.0498157  
H44      H      0.465550000000     0.337920000000     0.415790000000     0.0552891  
H45      H      0.466200000000     0.310830000000     0.035290000000     0.112195   
H46      H      0.266770000000     0.566300000000     0.960460000000     0.0572454  
H47      H      0.267050000000     0.486110000000     0.960150000000     0.0604692  
H48      H      0.385160000000     0.485610000000     0.519580000000     0.114095   
H49      H      0.239700000000     0.066000000000     0.747290000000     0.0548845  
H50      H      0.239630000000     0.985790000000     0.746940000000     0.0579212  
H51      H      0.120740000000     0.986690000000     0.688790000000     0.114592   
H52      H      0.038830000000     0.816140000000     0.673680000000     0.0556881  
H53      H      0.962780000000     0.816320000000     0.674110000000     0.0625288  
H54      H      0.964260000000     0.833110000000     0.794710000000     0.114103   
H55      H      0.766220000000     0.988380000000     0.749260000000     0.0562188  
H56      H      0.766370000000     0.068630000000     0.749820000000     0.0582713  
H57      H      0.885040000000     0.069470000000     0.692980000000     0.114774   
H58      H      0.043480000000     0.215510000000     0.794630000000     0.0552438  
H59      H      0.966990000000     0.215950000000     0.795470000000     0.0585383  
H60      H      0.964570000000     0.245160000000     0.676330000000     0.117533   
H61      H      0.757330000000     0.735280000000     0.798090000000     0.0508712  
H62      H      0.720640000000     0.705160000000     0.852530000000     0.0574023  
H63      H      0.746470000000     0.823470000000     0.914490000000     0.114605   
H64      H      0.771370000000     0.705710000000     0.583230000000     0.0529554  
H65      H      0.805680000000     0.735630000000     0.639070000000     0.0590494  
H66      H      0.730870000000     0.852970000000     0.629030000000     0.113024   
H67      H      0.783920000000     0.204680000000     0.858950000000     0.0514422  
H68      H      0.747470000000     0.234240000000     0.913350000000     0.0567564  
H69      H      0.723810000000     0.354560000000     0.851990000000     0.111268   
H70      H      0.699420000000     0.236820000000     0.573210000000     0.0567394  
H71      H      0.733130000000     0.206110000000     0.629420000000     0.0584755  
H72      H      0.810620000000     0.321500000000     0.638100000000     0.118536   
H73      H      0.739260000000     0.569950000000     0.962360000000     0.0524605  
H74      H      0.739990000000     0.489700000000     0.961660000000     0.0619671  
H75      H      0.621100000000     0.487270000000     0.518110000000     0.116632   
H76      H      0.224170000000     0.851200000000     0.854650000000     0.0547158  
H77      H      0.260270000000     0.821530000000     0.910070000000     0.0571028  
H78      H      0.280890000000     0.699820000000     0.851760000000     0.112405   
H79      H      0.306670000000     0.817940000000     0.571630000000     0.0526098  
H80      H      0.272720000000     0.848710000000     0.626800000000     0.0568633  
H81      H      0.194160000000     0.734050000000     0.634990000000     0.117485   
H82      H      0.539840000000     0.720230000000     0.916450000000     0.0512043  
H83      H      0.463350000000     0.719260000000     0.915900000000     0.0575208  
H84      H      0.463060000000     0.741780000000     0.535760000000     0.118162   
H85      H      0.245690000000     0.320710000000     0.797780000000     0.0548016  
H86      H      0.281990000000     0.351080000000     0.852400000000     0.0581769  
H87      H      0.263190000000     0.229710000000     0.913320000000     0.109752   
H88      H      0.275530000000     0.204620000000     0.630290000000     0.051201   
H89      H      0.309890000000     0.234510000000     0.574550000000     0.0587708  
H90      H      0.232340000000     0.350060000000     0.579810000000     0.114109   
H91      H      0.542030000000     0.338210000000     0.916030000000     0.0497759  
H92      H      0.465550000000     0.337920000000     0.915790000000     0.0552681  
H93      H      0.466200000000     0.310830000000     0.535290000000     0.112258   
H94      H      0.266770000000     0.566300000000     0.460460000000     0.0573576  
H95      H      0.267050000000     0.486110000000     0.460150000000     0.0605827  
H96      H      0.385160000000     0.485610000000     0.019570000000     0.11413    
In1      In     0.333210000000     0.345610000000     0.480180000000     2.42013    
In2      In     0.330870000000     0.706940000000     0.479690000000     2.42834    
In3      In     0.675080000000     0.348150000000     0.479820000000     2.42634    
In4      In     0.672630000000     0.709570000000     0.480780000000     2.42913    
In5      In     0.833050000000     0.209280000000     0.231510000000     2.4249     
In6      In     0.831060000000     0.847880000000     0.230680000000     2.42744    
In7      In     0.172860000000     0.845830000000     0.227530000000     2.42907    
In8      In     0.174890000000     0.207020000000     0.229790000000     2.43254    
In9      In     0.333210000000     0.345610000000     0.980180000000     2.41532    
In10     In     0.330870000000     0.706940000000     0.979690000000     2.42363    
In11     In     0.675080000000     0.348150000000     0.979830000000     2.42281    
In12     In     0.672630000000     0.709560000000     0.980780000000     2.42432    
In13     In     0.833050000000     0.209280000000     0.731510000000     2.42484    
In14     In     0.831060000000     0.847880000000     0.730680000000     2.4275     
In15     In     0.172860000000     0.845830000000     0.727530000000     2.4292     
In16     In     0.174890000000     0.207020000000     0.729780000000     2.4325     
N1       N      0.179880000000     0.980290000000     0.218350000000    -0.151841   
N2       N      0.179880000000     0.072650000000     0.218760000000    -0.221594   
N3       N      0.957870000000     0.825820000000     0.234340000000    -0.150714   
N4       N      0.045790000000     0.825680000000     0.233890000000    -0.221885   
N5       N      0.826010000000     0.075000000000     0.221940000000    -0.152024   
N6       N      0.825920000000     0.982620000000     0.221300000000    -0.22185    
N7       N      0.960120000000     0.229470000000     0.235770000000    -0.151245   
N8       N      0.048030000000     0.228920000000     0.234740000000    -0.220264   
N9       N      0.730780000000     0.762090000000     0.387560000000    -0.152184   
N10      N      0.773180000000     0.796870000000     0.324810000000    -0.22323    
N11      N      0.770820000000     0.796540000000     0.138200000000    -0.151537   
N12      N      0.731240000000     0.762100000000     0.073780000000    -0.220787   
N13      N      0.732880000000     0.296590000000     0.386710000000    -0.152968   
N14      N      0.774970000000     0.262570000000     0.323950000000    -0.223201   
N15      N      0.774350000000     0.261540000000     0.137960000000    -0.150329   
N16      N      0.735530000000     0.297020000000     0.073130000000    -0.221238   
N17      N      0.680310000000     0.482540000000     0.489330000000    -0.150552   
N18      N      0.679380000000     0.574910000000     0.990140000000    -0.222704   
N19      N      0.273280000000     0.758470000000     0.385040000000    -0.152641   
N20      N      0.231600000000     0.792610000000     0.321080000000    -0.222109   
N21      N      0.230950000000     0.793640000000     0.135040000000    -0.150915   
N22      N      0.270070000000     0.758070000000     0.071380000000    -0.221868   
N23      N      0.457570000000     0.729290000000     0.975960000000    -0.151195   
N24      N      0.545490000000     0.730380000000     0.476650000000    -0.220965   
N25      N      0.275310000000     0.292640000000     0.386930000000    -0.153124   
N26      N      0.233360000000     0.257560000000     0.323950000000    -0.222635   
N27      N      0.273630000000     0.294500000000     0.073000000000    -0.1513     
N28      N      0.234000000000     0.260090000000     0.137340000000    -0.221329   
N29      N      0.460220000000     0.325480000000     0.475700000000    -0.152647   
N30      N      0.548160000000     0.325850000000     0.976040000000    -0.223482   
N31      N      0.326420000000     0.479920000000     0.989350000000    -0.152124   
N32      N      0.326190000000     0.572280000000     0.489700000000    -0.221084   
N33      N      0.179880000000     0.980290000000     0.718350000000    -0.151858   
N34      N      0.179880000000     0.072650000000     0.718760000000    -0.221608   
N35      N      0.957870000000     0.825820000000     0.734340000000    -0.150775   
N36      N      0.045790000000     0.825690000000     0.733890000000    -0.221982   
N37      N      0.826010000000     0.075000000000     0.721940000000    -0.152054   
N38      N      0.825920000000     0.982620000000     0.721300000000    -0.221836   
N39      N      0.960120000000     0.229470000000     0.735770000000    -0.151264   
N40      N      0.048030000000     0.228920000000     0.734740000000    -0.220285   
N41      N      0.730780000000     0.762090000000     0.887560000000    -0.152245   
N42      N      0.773180000000     0.796870000000     0.824810000000    -0.223198   
N43      N      0.770820000000     0.796540000000     0.638210000000    -0.15165    
N44      N      0.731240000000     0.762090000000     0.573780000000    -0.220917   
N45      N      0.732880000000     0.296590000000     0.886710000000    -0.153021   
N46      N      0.774970000000     0.262570000000     0.823940000000    -0.223278   
N47      N      0.774340000000     0.261540000000     0.637960000000    -0.150278   
N48      N      0.735530000000     0.297020000000     0.573130000000    -0.221305   
N49      N      0.680310000000     0.482540000000     0.989330000000    -0.15136    
N50      N      0.679380000000     0.574910000000     0.490140000000    -0.22225    
N51      N      0.273280000000     0.758470000000     0.885030000000    -0.152636   
N52      N      0.231600000000     0.792610000000     0.821080000000    -0.222122   
N53      N      0.230950000000     0.793640000000     0.635040000000    -0.150958   
N54      N      0.270070000000     0.758070000000     0.571380000000    -0.222037   
N55      N      0.457570000000     0.729290000000     0.475950000000    -0.150723   
N56      N      0.545490000000     0.730380000000     0.976650000000    -0.221469   
N57      N      0.275310000000     0.292640000000     0.886930000000    -0.153144   
N58      N      0.233360000000     0.257560000000     0.823950000000    -0.222652   
N59      N      0.273630000000     0.294500000000     0.573000000000    -0.151414   
N60      N      0.234000000000     0.260090000000     0.637340000000    -0.221342   
N61      N      0.460220000000     0.325480000000     0.975700000000    -0.153144   
N62      N      0.548160000000     0.325850000000     0.476050000000    -0.223045   
N63      N      0.326420000000     0.479920000000     0.489350000000    -0.15164    
N64      N      0.326190000000     0.572280000000     0.989700000000    -0.221559   
O1       O      0.283810000000     0.348750000000     0.027180000000    -0.485157   
O2       O      0.322560000000     0.291340000000     0.024700000000    -0.477427   
O3       O      0.309840000000     0.349090000000     0.418470000000    -0.484662   
O4       O      0.299520000000     0.412020000000     0.471050000000    -0.476867   
O5       O      0.396560000000     0.327350000000     0.007040000000    -0.480002   
O6       O      0.358460000000     0.412260000000     0.000350000000    -0.486734   
O7       O      0.300610000000     0.288760000000     0.448730000000    -0.490845   
O8       O      0.395310000000     0.339290000000     0.447400000000    -0.492088   
O9       O      0.297900000000     0.763130000000     0.446960000000    -0.494187   
O10      O      0.308150000000     0.702710000000     0.417900000000    -0.480892   
O11      O      0.281050000000     0.703580000000     0.026410000000    -0.45049    
O12      O      0.298090000000     0.640040000000     0.971410000000    -0.477207   
O13      O      0.392990000000     0.715460000000     0.447220000000    -0.48945    
O14      O      0.357200000000     0.640550000000     0.500240000000    -0.452035   
O15      O      0.319330000000     0.761200000000     0.023270000000    -0.486375   
O16      O      0.393830000000     0.725150000000     0.007030000000    -0.472677   
O17      O      0.686770000000     0.293660000000     0.024000000000    -0.478773   
O18      O      0.724540000000     0.351630000000     0.027410000000    -0.451412   
O19      O      0.697000000000     0.351970000000     0.417980000000    -0.482531   
O20      O      0.612330000000     0.340290000000     0.447360000000    -0.498282   
O21      O      0.648900000000     0.414480000000     0.999320000000    -0.484671   
O22      O      0.612650000000     0.329160000000     0.007030000000    -0.445255   
O23      O      0.708770000000     0.292240000000     0.448530000000    -0.493457   
O24      O      0.708250000000     0.415020000000     0.471550000000    -0.470661   
O25      O      0.721070000000     0.706750000000     0.029400000000    -0.493268   
O26      O      0.683340000000     0.764640000000     0.023780000000    -0.433461   
O27      O      0.694150000000     0.706630000000     0.418780000000    -0.484747   
O28      O      0.706820000000     0.643290000000     0.473070000000    -0.486901   
O29      O      0.609820000000     0.726680000000     0.007900000000    -0.433059   
O30      O      0.647180000000     0.642550000000     0.000120000000    -0.4496     
O31      O      0.707030000000     0.765470000000     0.449460000000    -0.48434    
O32      O      0.610020000000     0.718040000000     0.448070000000    -0.494971   
O33      O      0.784090000000     0.206550000000     0.183390000000    -0.489283   
O34      O      0.822640000000     0.264040000000     0.187420000000    -0.466657   
O35      O      0.810760000000     0.206510000000     0.293340000000    -0.492294   
O36      O      0.798960000000     0.142910000000     0.239770000000    -0.479196   
O37      O      0.895760000000     0.228040000000     0.204760000000    -0.478759   
O38      O      0.858210000000     0.142610000000     0.211830000000    -0.490122   
O39      O      0.799540000000     0.265740000000     0.262110000000    -0.456277   
O40      O      0.895840000000     0.215290000000     0.264290000000    -0.487571   
O41      O      0.819190000000     0.793000000000     0.187630000000    -0.480968   
O42      O      0.782010000000     0.851450000000     0.182690000000    -0.486956   
O43      O      0.809870000000     0.851740000000     0.292640000000    -0.447021   
O44      O      0.893710000000     0.830680000000     0.203180000000    -0.479613   
O45      O      0.857300000000     0.914560000000     0.211300000000    -0.455203   
O46      O      0.893560000000     0.838050000000     0.263240000000    -0.479466   
O47      O      0.796620000000     0.792530000000     0.262780000000    -0.501175   
O48      O      0.797770000000     0.914620000000     0.238540000000    -0.478078   
O49      O      0.196560000000     0.849000000000     0.289070000000    -0.485094   
O50      O      0.206130000000     0.789090000000     0.259220000000    -0.453758   
O51      O      0.182470000000     0.791330000000     0.183760000000    -0.469417   
O52      O      0.108710000000     0.829750000000     0.201370000000    -0.49013    
O53      O      0.207000000000     0.911950000000     0.236070000000    -0.478821   
O54      O      0.111600000000     0.837440000000     0.261280000000    -0.451978   
O55      O      0.221600000000     0.848390000000     0.179870000000    -0.492338   
O56      O      0.147600000000     0.912910000000     0.207550000000    -0.488506   
O57      O      0.185290000000     0.262060000000     0.186020000000    -0.434514   
O58      O      0.224210000000     0.205010000000     0.182590000000    -0.497214   
O59      O      0.198260000000     0.202000000000     0.291430000000    -0.448066   
O60      O      0.112950000000     0.214020000000     0.262740000000    -0.489141   
O61      O      0.148530000000     0.141090000000     0.209120000000    -0.451008   
O62      O      0.111710000000     0.226170000000     0.203220000000    -0.433749   
O63      O      0.208170000000     0.262720000000     0.262130000000    -0.495673   
O64      O      0.207980000000     0.139990000000     0.237340000000    -0.480095   
O65      O      0.283810000000     0.348750000000     0.527180000000    -0.486391   
O66      O      0.322560000000     0.291340000000     0.524700000000    -0.478548   
O67      O      0.309840000000     0.349090000000     0.918470000000    -0.484329   
O68      O      0.299520000000     0.412020000000     0.971050000000    -0.47633    
O69      O      0.396560000000     0.327340000000     0.507040000000    -0.482084   
O70      O      0.358460000000     0.412260000000     0.500350000000    -0.489058   
O71      O      0.300610000000     0.288760000000     0.948730000000    -0.490848   
O72      O      0.395310000000     0.339290000000     0.947400000000    -0.491425   
O73      O      0.297900000000     0.763130000000     0.946960000000    -0.494184   
O74      O      0.308150000000     0.702710000000     0.917910000000    -0.480685   
O75      O      0.281050000000     0.703580000000     0.526410000000    -0.451667   
O76      O      0.298090000000     0.640040000000     0.471410000000    -0.477748   
O77      O      0.392990000000     0.715460000000     0.947220000000    -0.488787   
O78      O      0.357200000000     0.640550000000     0.000240000000    -0.449742   
O79      O      0.319330000000     0.761200000000     0.523270000000    -0.487449   
O80      O      0.393830000000     0.725150000000     0.507030000000    -0.474784   
O81      O      0.686770000000     0.293660000000     0.523990000000    -0.479787   
O82      O      0.724540000000     0.351630000000     0.527410000000    -0.452441   
O83      O      0.697000000000     0.351970000000     0.917990000000    -0.482293   
O84      O      0.612330000000     0.340290000000     0.947360000000    -0.497566   
O85      O      0.648900000000     0.414480000000     0.499320000000    -0.484154   
O86      O      0.612650000000     0.329160000000     0.507030000000    -0.447338   
O87      O      0.708770000000     0.292240000000     0.948530000000    -0.493562   
O88      O      0.708250000000     0.415020000000     0.971550000000    -0.470579   
O89      O      0.721070000000     0.706750000000     0.529400000000    -0.494519   
O90      O      0.683340000000     0.764630000000     0.523780000000    -0.434877   
O91      O      0.694150000000     0.706630000000     0.918790000000    -0.484566   
O92      O      0.706820000000     0.643290000000     0.973070000000    -0.48645    
O93      O      0.609820000000     0.726680000000     0.507900000000    -0.435086   
O94      O      0.647180000000     0.642550000000     0.500120000000    -0.451809   
O95      O      0.707030000000     0.765470000000     0.949460000000    -0.48427    
O96      O      0.610020000000     0.718040000000     0.948070000000    -0.49421    
O97      O      0.784090000000     0.206550000000     0.683390000000    -0.489361   
O98      O      0.822640000000     0.264040000000     0.687420000000    -0.466746   
O99      O      0.810760000000     0.206510000000     0.793340000000    -0.492373   
O100     O      0.798960000000     0.142910000000     0.739770000000    -0.479232   
O101     O      0.895760000000     0.228040000000     0.704760000000    -0.478817   
O102     O      0.858210000000     0.142610000000     0.711830000000    -0.49017    
O103     O      0.799540000000     0.265740000000     0.762110000000    -0.456324   
O104     O      0.895840000000     0.215290000000     0.764290000000    -0.487624   
O105     O      0.819190000000     0.793000000000     0.687630000000    -0.480998   
O106     O      0.782010000000     0.851440000000     0.682690000000    -0.487257   
O107     O      0.809870000000     0.851750000000     0.792640000000    -0.446929   
O108     O      0.893710000000     0.830680000000     0.703180000000    -0.47975    
O109     O      0.857300000000     0.914560000000     0.711300000000    -0.455256   
O110     O      0.893560000000     0.838050000000     0.763230000000    -0.479744   
O111     O      0.796620000000     0.792530000000     0.762780000000    -0.501156   
O112     O      0.797770000000     0.914620000000     0.738540000000    -0.478115   
O113     O      0.196560000000     0.849000000000     0.789070000000    -0.485161   
O114     O      0.206130000000     0.789090000000     0.759220000000    -0.453795   
O115     O      0.182470000000     0.791340000000     0.683760000000    -0.469652   
O116     O      0.108710000000     0.829760000000     0.701370000000    -0.490186   
O117     O      0.207000000000     0.911950000000     0.736070000000    -0.478873   
O118     O      0.111600000000     0.837440000000     0.761280000000    -0.451995   
O119     O      0.221600000000     0.848390000000     0.679870000000    -0.492436   
O120     O      0.147600000000     0.912910000000     0.707550000000    -0.48856    
O121     O      0.185290000000     0.262060000000     0.686020000000    -0.434645   
O122     O      0.224210000000     0.205010000000     0.682590000000    -0.497361   
O123     O      0.198260000000     0.202000000000     0.791430000000    -0.447982   
O124     O      0.112950000000     0.214020000000     0.762740000000    -0.489118   
O125     O      0.148530000000     0.141090000000     0.709120000000    -0.451106   
O126     O      0.111710000000     0.226170000000     0.703220000000    -0.433869   
O127     O      0.208170000000     0.262720000000     0.762130000000    -0.495631   
O128     O      0.207980000000     0.139990000000     0.737340000000    -0.480116   


