data_structure

_audit_creation_method RASPA-1.0
_audit_creation_date 2023-6-5
_audit_author_name 'Poobodin Mano'

_cell_length_a    30.9539
_cell_length_b    31.9574
_cell_length_c    34.1694
_cell_angle_alpha 89.5602
_cell_angle_beta  90.4398
_cell_angle_gamma 89.9991
_cell_volume      33798.6

_symmetry_cell_setting          triclinic
_symmetry_space_group_name_Hall 'P 1'
_symmetry_space_group_name_H-M  'P 1'
_symmetry_Int_Tables_number     1

_symmetry_equiv_pos_as_xyz 'x,y,z'

loop_
_atom_site_label
_atom_site_type_symbol
_atom_site_fract_x
_atom_site_fract_y
_atom_site_fract_z
_atom_site_charge
C1       C      0.327500000000     0.410080000000     0.994620000000     0.409358   
C2       C      0.301280000000     0.288040000000     0.428880000000     0.422737   
C3       C      0.424790000000     0.316920000000     0.483220000000     0.423137   
C4       C      0.300190000000     0.289720000000     0.053930000000     0.406831   
C5       C      0.328360000000     0.582950000000     0.494810000000     0.424182   
C6       C      0.300410000000     0.706570000000     0.055120000000     0.408203   
C7       C      0.425090000000     0.669690000000     0.992340000000     0.418712   
C8       C      0.299800000000     0.707920000000     0.433190000000     0.408352   
C9       C      0.603130000000     0.317640000000     0.983920000000     0.407943   
C10      C      0.726850000000     0.287560000000     0.431980000000     0.409175   
C11      C      0.701770000000     0.410050000000     0.495990000000     0.410918   
C12      C      0.725790000000     0.289500000000     0.057260000000     0.421469   
C13      C      0.701430000000     0.582840000000     0.995220000000     0.420048   
C14      C      0.728720000000     0.707230000000     0.433330000000     0.408805   
C15      C      0.603690000000     0.669170000000     0.492990000000     0.407835   
C16      C      0.727560000000     0.707960000000     0.055010000000     0.408363   
C17      C      0.825250000000     0.084330000000     0.242760000000     0.424474   
C18      C      0.803400000000     0.208420000000     0.307140000000     0.424066   
C19      C      0.924980000000     0.175420000000     0.253540000000     0.41113    
C20      C      0.800060000000     0.205070000000     0.182650000000     0.407062   
C21      C      0.924660000000     0.826220000000     0.244650000000     0.410646   
C22      C      0.802110000000     0.786400000000     0.305510000000     0.422383   
C23      C      0.826580000000     0.911630000000     0.241950000000     0.410718   
C24      C      0.799040000000     0.788310000000     0.182790000000     0.422107   
C25      C      0.103260000000     0.826810000000     0.244150000000     0.424604   
C26      C      0.227120000000     0.785880000000     0.181680000000     0.421744   
C27      C      0.201700000000     0.911240000000     0.237880000000     0.408961   
C28      C      0.226420000000     0.786530000000     0.304060000000     0.422457   
C29      C      0.103350000000     0.174380000000     0.251660000000     0.424851   
C30      C      0.226020000000     0.207720000000     0.303000000000     0.409124   
C31      C      0.202350000000     0.083980000000     0.236450000000     0.425124   
C32      C      0.225730000000     0.205370000000     0.178240000000     0.421059   
C33      C      0.214980000000     0.975830000000     0.269480000000     0.0266611  
C34      C      0.197260000000     0.975320000000     0.202260000000    -0.0293383  
C35      C      0.215210000000     0.019460000000     0.268840000000     0.0411895  
C36      C      0.197700000000     0.019170000000     0.201380000000     0.205139   
C37      C      0.991110000000     0.816650000000     0.211720000000     0.0277712  
C38      C      0.991330000000     0.835650000000     0.278260000000    -0.0281992  
C39      C      0.036180000000     0.816940000000     0.211820000000     0.0412277  
C40      C      0.036550000000     0.836200000000     0.278500000000     0.206689   
C41      C      0.830470000000     0.976680000000     0.208000000000     0.0268051  
C42      C      0.813100000000     0.975200000000     0.275060000000    -0.0295111  
C43      C      0.829760000000     0.020380000000     0.208360000000     0.0389634  
C44      C      0.812290000000     0.018950000000     0.275600000000     0.205526   
C45      C      0.991460000000     0.206650000000     0.234840000000     0.0282224  
C46      C      0.991550000000     0.148250000000     0.277420000000    -0.0287288  
C47      C      0.036580000000     0.206180000000     0.234540000000     0.0413335  
C48      C      0.036750000000     0.147730000000     0.277380000000     0.206519   
C49      C      0.725470000000     0.757570000000     0.381910000000     0.0270306  
C50      C      0.787730000000     0.715800000000     0.389930000000    -0.0291098  
C51      C      0.744120000000     0.777250000000     0.349580000000     0.0398164  
C52      C      0.806710000000     0.735570000000     0.357620000000     0.205403   
C53      C      0.779580000000     0.711220000000     0.106310000000     0.0269504  
C54      C      0.728450000000     0.765400000000     0.098660000000    -0.0299473  
C55      C      0.797260000000     0.731570000000     0.138660000000     0.0398585  
C56      C      0.746170000000     0.786080000000     0.130990000000     0.205348   
C57      C      0.726510000000     0.234770000000     0.383540000000     0.0261747  
C58      C      0.784940000000     0.281970000000     0.387400000000    -0.0287778  
C59      C      0.746110000000     0.214980000000     0.352080000000     0.04151    
C60      C      0.804630000000     0.262400000000     0.355680000000     0.205694   
C61      C      0.803900000000     0.232350000000     0.117930000000     0.0265517  
C62      C      0.739920000000     0.240290000000     0.154120000000    -0.0310322  
C63      C      0.785060000000     0.254070000000     0.086600000000     0.0388221  
C64      C      0.720760000000     0.261950000000     0.122720000000     0.205107   
C65      C      0.698960000000     0.474510000000     0.030170000000     0.027883   
C66      C      0.712690000000     0.474310000000     0.462400000000    -0.0289353  
C67      C      0.698820000000     0.518220000000     0.029670000000     0.0412094  
C68      C      0.712860000000     0.518070000000     0.961760000000     0.20507    
C69      C      0.302400000000     0.759190000000     0.382550000000     0.0270754  
C70      C      0.241570000000     0.715210000000     0.388000000000    -0.028492   
C71      C      0.283810000000     0.778650000000     0.349800000000     0.0399377  
C72      C      0.222830000000     0.734490000000     0.355070000000     0.206615   
C73      C      0.298910000000     0.762580000000     0.100340000000     0.0265338  
C74      C      0.246710000000     0.709030000000     0.104290000000    -0.0297262  
C75      C      0.280370000000     0.782280000000     0.132420000000     0.0394554  
C76      C      0.227790000000     0.728780000000     0.136330000000     0.205448   
C77      C      0.537040000000     0.675800000000     0.026250000000     0.0280213  
C78      C      0.537230000000     0.664600000000     0.458130000000    -0.0300671  
C79      C      0.491970000000     0.675970000000     0.025830000000     0.0409479  
C80      C      0.492010000000     0.664940000000     0.457480000000     0.205144   
C81      C      0.282870000000     0.214150000000     0.349550000000     0.0272194  
C82      C      0.224920000000     0.262040000000     0.349920000000    -0.0302644  
C83      C      0.301720000000     0.234620000000     0.381280000000     0.0392647  
C84      C      0.243770000000     0.282840000000     0.381620000000     0.206254   
C85      C      0.304640000000     0.260740000000     0.118050000000     0.0267016  
C86      C      0.239230000000     0.256710000000     0.082470000000    -0.0302991  
C87      C      0.285720000000     0.239050000000     0.149110000000     0.0390363  
C88      C      0.219990000000     0.235150000000     0.113620000000     0.205722   
C89      C      0.536230000000     0.345270000000     0.461490000000     0.0260977  
C90      C      0.537170000000     0.283440000000     0.999570000000    -0.0312488  
C91      C      0.491210000000     0.344830000000     0.461380000000     0.0390385  
C92      C      0.491880000000     0.282760000000     0.499460000000     0.204687   
C93      C      0.332010000000     0.474340000000     0.029050000000     0.0283996  
C94      C      0.316400000000     0.474610000000     0.461420000000    -0.0285573  
C95      C      0.332350000000     0.518070000000     0.028770000000     0.0417311  
C96      C      0.316850000000     0.518360000000     0.460900000000     0.206187   
C97      C      0.327500000000     0.410080000000     0.494620000000     0.412236   
C98      C      0.301280000000     0.288040000000     0.928880000000     0.422382   
C99      C      0.424790000000     0.316930000000     0.983220000000     0.419873   
C100     C      0.300190000000     0.289720000000     0.553930000000     0.407105   
C101     C      0.328370000000     0.582950000000     0.994810000000     0.421223   
C102     C      0.300410000000     0.706570000000     0.555120000000     0.408584   
C103     C      0.425090000000     0.669690000000     0.492340000000     0.421637   
C104     C      0.299800000000     0.707920000000     0.933190000000     0.408177   
C105     C      0.603130000000     0.317630000000     0.483920000000     0.410742   
C106     C      0.726840000000     0.287560000000     0.931980000000     0.408999   
C107     C      0.701770000000     0.410050000000     0.995990000000     0.40799    
C108     C      0.725790000000     0.289500000000     0.557270000000     0.421454   
C109     C      0.701430000000     0.582840000000     0.495220000000     0.422863   
C110     C      0.728730000000     0.707230000000     0.933330000000     0.408611   
C111     C      0.603690000000     0.669180000000     0.992990000000     0.405016   
C112     C      0.727560000000     0.707960000000     0.555010000000     0.40845    
C113     C      0.825250000000     0.084330000000     0.742760000000     0.424462   
C114     C      0.803400000000     0.208420000000     0.807140000000     0.423809   
C115     C      0.924980000000     0.175420000000     0.753540000000     0.411194   
C116     C      0.800060000000     0.205070000000     0.682650000000     0.407059   
C117     C      0.924660000000     0.826220000000     0.744650000000     0.410795   
C118     C      0.802110000000     0.786410000000     0.805510000000     0.422366   
C119     C      0.826580000000     0.911630000000     0.741950000000     0.410702   
C120     C      0.799040000000     0.788310000000     0.682790000000     0.421939   
C121     C      0.103260000000     0.826810000000     0.744150000000     0.424525   
C122     C      0.227120000000     0.785880000000     0.681680000000     0.421699   
C123     C      0.201700000000     0.911240000000     0.737880000000     0.409033   
C124     C      0.226420000000     0.786530000000     0.804060000000     0.422425   
C125     C      0.103350000000     0.174390000000     0.751660000000     0.424814   
C126     C      0.226020000000     0.207720000000     0.803000000000     0.409015   
C127     C      0.202350000000     0.083980000000     0.736450000000     0.425388   
C128     C      0.225730000000     0.205370000000     0.678240000000     0.421025   
C129     C      0.214980000000     0.975840000000     0.769490000000     0.0264905  
C130     C      0.197260000000     0.975320000000     0.702260000000    -0.0293994  
C131     C      0.215210000000     0.019460000000     0.768840000000     0.0412019  
C132     C      0.197700000000     0.019170000000     0.701380000000     0.205094   
C133     C      0.991110000000     0.816650000000     0.711720000000     0.0277115  
C134     C      0.991330000000     0.835650000000     0.778260000000    -0.028213   
C135     C      0.036180000000     0.816950000000     0.711820000000     0.0411801  
C136     C      0.036550000000     0.836200000000     0.778500000000     0.206604   
C137     C      0.830480000000     0.976680000000     0.708000000000     0.0267341  
C138     C      0.813100000000     0.975200000000     0.775060000000    -0.0295611  
C139     C      0.829760000000     0.020380000000     0.708360000000     0.0389124  
C140     C      0.812290000000     0.018950000000     0.775600000000     0.205477   
C141     C      0.991460000000     0.206650000000     0.734840000000     0.0282039  
C142     C      0.991540000000     0.148250000000     0.777420000000    -0.0287591  
C143     C      0.036580000000     0.206180000000     0.734540000000     0.0412402  
C144     C      0.036750000000     0.147730000000     0.777380000000     0.206434   
C145     C      0.725470000000     0.757570000000     0.881910000000     0.0269381  
C146     C      0.787720000000     0.715800000000     0.889920000000    -0.0291892  
C147     C      0.744120000000     0.777250000000     0.849580000000     0.0397324  
C148     C      0.806710000000     0.735570000000     0.857620000000     0.205313   
C149     C      0.779590000000     0.711220000000     0.606310000000     0.0266855  
C150     C      0.728450000000     0.765400000000     0.598660000000    -0.0299609  
C151     C      0.797260000000     0.731570000000     0.638660000000     0.0398477  
C152     C      0.746170000000     0.786080000000     0.630990000000     0.205161   
C153     C      0.726520000000     0.234770000000     0.883540000000     0.0260601  
C154     C      0.784930000000     0.281970000000     0.887400000000    -0.0287297  
C155     C      0.746110000000     0.214980000000     0.852080000000     0.0414155  
C156     C      0.804630000000     0.262400000000     0.855680000000     0.205539   
C157     C      0.803900000000     0.232350000000     0.617930000000     0.0264454  
C158     C      0.739920000000     0.240290000000     0.654120000000    -0.0311231  
C159     C      0.785060000000     0.254070000000     0.586600000000     0.0387429  
C160     C      0.720760000000     0.261950000000     0.622720000000     0.204985   
C161     C      0.698960000000     0.474510000000     0.530170000000     0.0263205  
C162     C      0.712690000000     0.474310000000     0.962400000000    -0.0293226  
C163     C      0.698820000000     0.518230000000     0.529670000000     0.0396627  
C164     C      0.712860000000     0.518070000000     0.461760000000     0.205341   
C165     C      0.302400000000     0.759190000000     0.882540000000     0.0269333  
C166     C      0.241570000000     0.715210000000     0.888000000000    -0.0286087  
C167     C      0.283810000000     0.778650000000     0.849800000000     0.0398822  
C168     C      0.222830000000     0.734490000000     0.855070000000     0.206555   
C169     C      0.298910000000     0.762580000000     0.600340000000     0.0264373  
C170     C      0.246710000000     0.709030000000     0.604290000000    -0.0297956  
C171     C      0.280370000000     0.782280000000     0.632420000000     0.0393422  
C172     C      0.227790000000     0.728780000000     0.636330000000     0.205329   
C173     C      0.537040000000     0.675800000000     0.526250000000     0.0264762  
C174     C      0.537230000000     0.664600000000     0.958130000000    -0.0303831  
C175     C      0.491980000000     0.675970000000     0.525830000000     0.0393647  
C176     C      0.492000000000     0.664940000000     0.957480000000     0.204856   
C177     C      0.282870000000     0.214150000000     0.849550000000     0.0271505  
C178     C      0.224920000000     0.262040000000     0.849920000000    -0.0303342  
C179     C      0.301720000000     0.234620000000     0.881280000000     0.0391449  
C180     C      0.243770000000     0.282840000000     0.881620000000     0.206148   
C181     C      0.304640000000     0.260740000000     0.618050000000     0.0266193  
C182     C      0.239230000000     0.256710000000     0.582470000000    -0.0304377  
C183     C      0.285720000000     0.239050000000     0.649110000000     0.0389499  
C184     C      0.219990000000     0.235150000000     0.613620000000     0.20563    
C185     C      0.536240000000     0.345270000000     0.961490000000     0.0259163  
C186     C      0.537170000000     0.283440000000     0.499570000000    -0.0290665  
C187     C      0.491210000000     0.344830000000     0.961380000000     0.0388262  
C188     C      0.491880000000     0.282760000000     0.999450000000     0.20277    
C189     C      0.332010000000     0.474340000000     0.529050000000     0.0268405  
C190     C      0.316400000000     0.474610000000     0.961420000000    -0.0289241  
C191     C      0.332360000000     0.518070000000     0.528770000000     0.0401318  
C192     C      0.316850000000     0.518360000000     0.960900000000     0.205895   
H1       H      0.222320000000     0.035390000000     0.296050000000     0.0468969  
H2       H      0.221910000000     0.960060000000     0.297040000000     0.0489486  
H3       H      0.189920000000     0.958900000000     0.175340000000     0.0715873  
H4       H      0.217480000000     0.043030000000     0.153940000000     0.157357   
H5       H      0.052370000000     0.809260000000     0.184770000000     0.046082   
H6       H      0.974490000000     0.808840000000     0.184690000000     0.048878   
H7       H      0.974710000000     0.843220000000     0.305130000000     0.0725589  
H8       H      0.060950000000     0.876930000000     0.311980000000     0.157822   
H9       H      0.836830000000     0.036830000000     0.181280000000     0.0437221  
H10      H      0.837900000000     0.961240000000     0.180720000000     0.0470751  
H11      H      0.806310000000     0.958450000000     0.302060000000     0.072294   
H12      H      0.770770000000     0.041980000000     0.309630000000     0.156592   
H13      H      0.052890000000     0.229630000000     0.216940000000     0.0465979  
H14      H      0.974860000000     0.230350000000     0.217540000000     0.0495629  
H15      H      0.974900000000     0.124730000000     0.294710000000     0.0738617  
H16      H      0.062330000000     0.130630000000     0.325380000000     0.158556   
H17      H      0.725490000000     0.801350000000     0.334620000000     0.0459839  
H18      H      0.693340000000     0.767250000000     0.390470000000     0.0482123  
H19      H      0.805970000000     0.691550000000     0.405100000000     0.0722339  
H20      H      0.867440000000     0.741310000000     0.361760000000     0.160105   
H21      H      0.824460000000     0.716860000000     0.153480000000     0.0470378  
H22      H      0.793790000000     0.681740000000     0.097570000000     0.0485901  
H23      H      0.701150000000     0.779730000000     0.083630000000     0.0718183  
H24      H      0.743790000000     0.845160000000     0.127090000000     0.158429   
H25      H      0.729410000000     0.188560000000     0.339180000000     0.0463035  
H26      H      0.695660000000     0.222890000000     0.393550000000     0.0468233  
H27      H      0.801320000000     0.308370000000     0.400660000000     0.0736828  
H28      H      0.836520000000     0.299130000000     0.323160000000     0.158004   
H29      H      0.804310000000     0.258680000000     0.060530000000     0.0459937  
H30      H      0.836790000000     0.221250000000     0.114790000000     0.0490624  
H31      H      0.721060000000     0.235580000000     0.180420000000     0.0708497  
H32      H      0.660540000000     0.252890000000     0.117630000000     0.159056   
H33      H      0.692970000000     0.534170000000     0.057030000000     0.0452665  
H34      H      0.693190000000     0.458530000000     0.057750000000     0.0480659  
H35      H      0.718240000000     0.458080000000     0.435120000000     0.0735196  
H36      H      0.752020000000     0.542120000000     0.925750000000     0.159147   
H37      H      0.301820000000     0.803650000000     0.335790000000     0.0448773  
H38      H      0.333930000000     0.769840000000     0.392310000000     0.0472576  
H39      H      0.223860000000     0.690180000000     0.402300000000     0.0751406  
H40      H      0.188930000000     0.698100000000     0.323990000000     0.16082    
H41      H      0.294940000000     0.811190000000     0.142430000000     0.0445628  
H42      H      0.326940000000     0.777040000000     0.087010000000     0.0478544  
H43      H      0.232510000000     0.680030000000     0.094060000000     0.0729714  
H44      H      0.167100000000     0.722100000000     0.138880000000     0.161      
H45      H      0.475610000000     0.680490000000     0.053430000000     0.045364   
H46      H      0.553500000000     0.680240000000     0.054050000000     0.0486251  
H47      H      0.554010000000     0.659980000000     0.430740000000     0.0730424  
H48      H      0.467570000000     0.687870000000     0.411110000000     0.159113   
H49      H      0.332080000000     0.222500000000     0.392660000000     0.043504   
H50      H      0.299450000000     0.187190000000     0.337750000000     0.0485273  
H51      H      0.194500000000     0.273800000000     0.338320000000     0.0715123  
H52      H      0.233920000000     0.341310000000     0.381480000000     0.159647   
H53      H      0.305520000000     0.232840000000     0.174830000000     0.0444224  
H54      H      0.338140000000     0.270220000000     0.121030000000     0.0500899  
H55      H      0.219810000000     0.262990000000     0.056520000000     0.0743155  
H56      H      0.160470000000     0.246840000000     0.119660000000     0.159654   
H57      H      0.474610000000     0.369980000000     0.445960000000     0.0444271  
H58      H      0.552360000000     0.370620000000     0.446190000000     0.0480199  
H59      H      0.554280000000     0.258680000000     0.015090000000     0.0731236  
H60      H      0.467230000000     0.228580000000     0.498920000000     0.157003   
H61      H      0.338890000000     0.533830000000     0.056180000000     0.0452148  
H62      H      0.338420000000     0.458170000000     0.056510000000     0.0467331  
H63      H      0.309960000000     0.458570000000     0.434110000000     0.0730442  
H64      H      0.337150000000     0.541550000000     0.413310000000     0.160057   
H65      H      0.222320000000     0.035390000000     0.796050000000     0.0467632  
H66      H      0.221910000000     0.960050000000     0.797040000000     0.0488792  
H67      H      0.189920000000     0.958900000000     0.675340000000     0.0714518  
H68      H      0.217480000000     0.043030000000     0.653940000000     0.15719    
H69      H      0.052370000000     0.809260000000     0.684770000000     0.0459463  
H70      H      0.974490000000     0.808840000000     0.684690000000     0.0487417  
H71      H      0.974700000000     0.843220000000     0.805130000000     0.072442   
H72      H      0.060950000000     0.876940000000     0.811980000000     0.157618   
H73      H      0.836830000000     0.036830000000     0.681280000000     0.043582   
H74      H      0.837900000000     0.961230000000     0.680720000000     0.0469486  
H75      H      0.806310000000     0.958450000000     0.802060000000     0.072179   
H76      H      0.770770000000     0.041980000000     0.809630000000     0.15648    
H77      H      0.052890000000     0.229630000000     0.716940000000     0.0465081  
H78      H      0.974860000000     0.230350000000     0.717540000000     0.0494547  
H79      H      0.974900000000     0.124730000000     0.794710000000     0.0737565  
H80      H      0.062330000000     0.130630000000     0.825380000000     0.158393   
H81      H      0.725490000000     0.801350000000     0.834620000000     0.0458983  
H82      H      0.693340000000     0.767250000000     0.890470000000     0.0480485  
H83      H      0.805960000000     0.691550000000     0.905100000000     0.0720347  
H84      H      0.867440000000     0.741310000000     0.861760000000     0.159929   
H85      H      0.824460000000     0.716860000000     0.653480000000     0.0469139  
H86      H      0.793790000000     0.681740000000     0.597570000000     0.0484199  
H87      H      0.701150000000     0.779730000000     0.583630000000     0.0715673  
H88      H      0.743790000000     0.845160000000     0.627090000000     0.158221   
H89      H      0.729410000000     0.188560000000     0.839180000000     0.0462138  
H90      H      0.695660000000     0.222890000000     0.893550000000     0.046647   
H91      H      0.801320000000     0.308380000000     0.900660000000     0.0734397  
H92      H      0.836520000000     0.299130000000     0.823160000000     0.157948   
H93      H      0.804310000000     0.258680000000     0.560530000000     0.0456253  
H94      H      0.836790000000     0.221250000000     0.614790000000     0.04887    
H95      H      0.721060000000     0.235580000000     0.680420000000     0.0708016  
H96      H      0.660540000000     0.252890000000     0.617630000000     0.158887   
H97      H      0.692970000000     0.534170000000     0.557030000000     0.0452958  
H98      H      0.693190000000     0.458530000000     0.557750000000     0.0480816  
H99      H      0.718240000000     0.458090000000     0.935120000000     0.073511   
H100     H      0.752020000000     0.542120000000     0.425750000000     0.15933    
H101     H      0.301820000000     0.803650000000     0.835790000000     0.0447806  
H102     H      0.333930000000     0.769840000000     0.892310000000     0.0471091  
H103     H      0.223860000000     0.690180000000     0.902300000000     0.074958   
H104     H      0.188930000000     0.698100000000     0.823990000000     0.160773   
H105     H      0.294940000000     0.811190000000     0.642430000000     0.0444414  
H106     H      0.326940000000     0.777040000000     0.587010000000     0.047615   
H107     H      0.232510000000     0.680030000000     0.594050000000     0.0727409  
H108     H      0.167100000000     0.722100000000     0.638880000000     0.160809   
H109     H      0.475610000000     0.680490000000     0.553430000000     0.0454391  
H110     H      0.553500000000     0.680240000000     0.554050000000     0.0486769  
H111     H      0.554020000000     0.659980000000     0.930740000000     0.0730194  
H112     H      0.467580000000     0.687870000000     0.911110000000     0.159006   
H113     H      0.332080000000     0.222500000000     0.892660000000     0.0433464  
H114     H      0.299450000000     0.187190000000     0.837750000000     0.0484249  
H115     H      0.194500000000     0.273800000000     0.838320000000     0.0714151  
H116     H      0.233920000000     0.341310000000     0.881480000000     0.159601   
H117     H      0.305520000000     0.232840000000     0.674830000000     0.0443614  
H118     H      0.338140000000     0.270220000000     0.621030000000     0.0499766  
H119     H      0.219810000000     0.262990000000     0.556520000000     0.0739621  
H120     H      0.160470000000     0.246840000000     0.619660000000     0.159557   
H121     H      0.474610000000     0.369980000000     0.945960000000     0.0443532  
H122     H      0.552360000000     0.370620000000     0.946190000000     0.0479257  
H123     H      0.554280000000     0.258680000000     0.515090000000     0.0712294  
H124     H      0.467230000000     0.228580000000     0.998920000000     0.154824   
H125     H      0.338890000000     0.533830000000     0.556180000000     0.0452659  
H126     H      0.338410000000     0.458180000000     0.556510000000     0.0467409  
H127     H      0.309960000000     0.458570000000     0.934110000000     0.0730324  
H128     H      0.337150000000     0.541560000000     0.913310000000     0.159994   
In1      In     0.338230000000     0.326120000000     0.491110000000     2.41218    
In2      In     0.337700000000     0.667270000000     0.494200000000     2.41941    
In3      In     0.689650000000     0.326220000000     0.493060000000     2.41087    
In4      In     0.691030000000     0.667060000000     0.494200000000     2.41824    
In5      In     0.838230000000     0.168170000000     0.245670000000     2.41321    
In6      In     0.837330000000     0.827630000000     0.243820000000     2.42077    
In7      In     0.190660000000     0.827340000000     0.241910000000     2.42111    
In8      In     0.189870000000     0.167750000000     0.241610000000     2.41506    
In9      In     0.338230000000     0.326120000000     0.991110000000     2.40544    
In10     In     0.337700000000     0.667270000000     0.994200000000     2.41274    
In11     In     0.689650000000     0.326220000000     0.993060000000     2.40433    
In12     In     0.691030000000     0.667060000000     0.994200000000     2.4115     
In13     In     0.838230000000     0.168170000000     0.745670000000     2.4131     
In14     In     0.837330000000     0.827630000000     0.743820000000     2.42059    
In15     In     0.190660000000     0.827340000000     0.741910000000     2.42101    
In16     In     0.189870000000     0.167750000000     0.741610000000     2.41508    
N1       N      0.205030000000     0.953920000000     0.236430000000    -0.164268   
N2       N      0.205540000000     0.041180000000     0.235150000000    -0.203213   
N3       N      0.968850000000     0.826080000000     0.244900000000    -0.163896   
N4       N      0.058950000000     0.826700000000     0.245070000000    -0.20274    
N5       N      0.823060000000     0.954290000000     0.241560000000    -0.164458   
N6       N      0.821860000000     0.041530000000     0.242290000000    -0.203855   
N7       N      0.969120000000     0.177100000000     0.255580000000    -0.163337   
N8       N      0.059220000000     0.176190000000     0.254970000000    -0.203064   
N9       N      0.747280000000     0.726870000000     0.401940000000    -0.163936   
N10      N      0.784610000000     0.766320000000     0.337320000000    -0.203107   
N11      N      0.745230000000     0.728160000000     0.086440000000    -0.164168   
N12      N      0.780650000000     0.768910000000     0.151080000000    -0.203265   
N13      N      0.745990000000     0.268160000000     0.401100000000    -0.163779   
N14      N      0.785090000000     0.228650000000     0.338130000000    -0.203111   
N15      N      0.781300000000     0.225580000000     0.151600000000    -0.164431   
N16      N      0.743590000000     0.268900000000     0.088880000000    -0.203498   
N17      N      0.704940000000     0.452740000000     0.496360000000    -0.164159   
N18      N      0.704770000000     0.540020000000     0.995410000000    -0.204348   
N19      N      0.281260000000     0.727500000000     0.401500000000    -0.16356    
N20      N      0.244090000000     0.766460000000     0.336050000000    -0.202845   
N21      N      0.282040000000     0.726030000000     0.086390000000    -0.164051   
N22      N      0.244880000000     0.765520000000     0.150440000000    -0.203494   
N23      N      0.559510000000     0.669910000000     0.492450000000    -0.163836   
N24      N      0.469400000000     0.670270000000     0.991620000000    -0.20432    
N25      N      0.244520000000     0.227880000000     0.334030000000    -0.164056   
N26      N      0.282230000000     0.268800000000     0.397430000000    -0.203228   
N27      N      0.281380000000     0.269390000000     0.084800000000    -0.163551   
N28      N      0.243520000000     0.226180000000     0.146990000000    -0.203555   
N29      N      0.559070000000     0.315140000000     0.981330000000    -0.163886   
N30      N      0.468970000000     0.314310000000     0.481140000000    -0.20367    
N31      N      0.324850000000     0.452800000000     0.995220000000    -0.165048   
N32      N      0.325500000000     0.540100000000     0.494690000000    -0.203329   
N33      N      0.205030000000     0.953910000000     0.736430000000    -0.164316   
N34      N      0.205540000000     0.041180000000     0.735150000000    -0.203296   
N35      N      0.968840000000     0.826080000000     0.744900000000    -0.163995   
N36      N      0.058950000000     0.826700000000     0.745070000000    -0.202745   
N37      N      0.823060000000     0.954290000000     0.741560000000    -0.164479   
N38      N      0.821860000000     0.041530000000     0.742290000000    -0.203878   
N39      N      0.969110000000     0.177100000000     0.755570000000    -0.163437   
N40      N      0.059220000000     0.176190000000     0.754970000000    -0.203077   
N41      N      0.747280000000     0.726870000000     0.901940000000    -0.164006   
N42      N      0.784610000000     0.766320000000     0.837320000000    -0.203094   
N43      N      0.745220000000     0.728170000000     0.586440000000    -0.164247   
N44      N      0.780660000000     0.768910000000     0.651080000000    -0.203261   
N45      N      0.746000000000     0.268160000000     0.901100000000    -0.16381    
N46      N      0.785090000000     0.228650000000     0.838130000000    -0.203081   
N47      N      0.781310000000     0.225580000000     0.651600000000    -0.164483   
N48      N      0.743600000000     0.268900000000     0.588880000000    -0.203617   
N49      N      0.704940000000     0.452740000000     0.996360000000    -0.164804   
N50      N      0.704770000000     0.540020000000     0.495410000000    -0.203676   
N51      N      0.281260000000     0.727500000000     0.901500000000    -0.163586   
N52      N      0.244090000000     0.766460000000     0.836050000000    -0.202869   
N53      N      0.282040000000     0.726030000000     0.586400000000    -0.164192   
N54      N      0.244880000000     0.765520000000     0.650440000000    -0.203507   
N55      N      0.559510000000     0.669910000000     0.992450000000    -0.164523   
N56      N      0.469400000000     0.670270000000     0.491620000000    -0.203624   
N57      N      0.244520000000     0.227880000000     0.834040000000    -0.164035   
N58      N      0.282230000000     0.268800000000     0.897430000000    -0.203233   
N59      N      0.281380000000     0.269390000000     0.584800000000    -0.163695   
N60      N      0.243520000000     0.226180000000     0.646990000000    -0.203576   
N61      N      0.559070000000     0.315140000000     0.481330000000    -0.164459   
N62      N      0.468970000000     0.314310000000     0.981140000000    -0.203051   
N63      N      0.324850000000     0.452800000000     0.495220000000    -0.164393   
N64      N      0.325500000000     0.540090000000     0.994690000000    -0.203957   
O1       O      0.280270000000     0.297400000000     0.022350000000    -0.494018   
O2       O      0.339160000000     0.301390000000     0.054250000000    -0.483979   
O3       O      0.284960000000     0.319300000000     0.445520000000    -0.476946   
O4       O      0.323690000000     0.389490000000     0.463450000000    -0.490928   
O5       O      0.401880000000     0.291210000000     0.002150000000    -0.472506   
O6       O      0.335940000000     0.388150000000     0.024660000000    -0.494628   
O7       O      0.336620000000     0.275780000000     0.443830000000    -0.502945   
O8       O      0.403690000000     0.346590000000     0.467680000000    -0.506368   
O9       O      0.281870000000     0.678000000000     0.451150000000    -0.489364   
O10      O      0.336600000000     0.717760000000     0.446420000000    -0.494611   
O11      O      0.286320000000     0.672510000000     0.041530000000    -0.493675   
O12      O      0.323360000000     0.605200000000     0.964460000000    -0.484203   
O13      O      0.402030000000     0.663920000000     0.462250000000    -0.486735   
O14      O      0.337580000000     0.603490000000     0.525190000000    -0.497556   
O15      O      0.333080000000     0.720990000000     0.037690000000    -0.494688   
O16      O      0.403850000000     0.674450000000     0.023420000000    -0.494268   
O17      O      0.687700000000     0.303580000000     0.056730000000    -0.478725   
O18      O      0.745930000000     0.295090000000     0.025690000000    -0.501437   
O19      O      0.690840000000     0.276160000000     0.445650000000    -0.499924   
O20      O      0.625810000000     0.291460000000     0.502860000000    -0.485611   
O21      O      0.704500000000     0.389220000000     0.964910000000    -0.489453   
O22      O      0.624280000000     0.347400000000     0.968960000000    -0.500046   
O23      O      0.743850000000     0.318320000000     0.449190000000    -0.485591   
O24      O      0.693790000000     0.388410000000     0.526200000000    -0.49508    
O25      O      0.741540000000     0.673280000000     0.042920000000    -0.494546   
O26      O      0.695550000000     0.722190000000     0.036040000000    -0.494591   
O27      O      0.747370000000     0.678420000000     0.452530000000    -0.493333   
O28      O      0.704770000000     0.604830000000     0.464570000000    -0.485437   
O29      O      0.625630000000     0.673780000000     0.023960000000    -0.489894   
O30      O      0.693230000000     0.603560000000     0.025590000000    -0.494701   
O31      O      0.691290000000     0.716070000000     0.445180000000    -0.494042   
O32      O      0.625860000000     0.663610000000     0.462600000000    -0.490789   
O33      O      0.780710000000     0.198800000000     0.214510000000    -0.500447   
O34      O      0.838450000000     0.191730000000     0.182170000000    -0.487553   
O35      O      0.785670000000     0.177460000000     0.290840000000    -0.489888   
O36      O      0.822130000000     0.105370000000     0.273640000000    -0.481096   
O37      O      0.902710000000     0.200540000000     0.232990000000    -0.484813   
O38      O      0.834150000000     0.105890000000     0.212720000000    -0.503421   
O39      O      0.839060000000     0.219070000000     0.292320000000    -0.489268   
O40      O      0.903310000000     0.147430000000     0.270750000000    -0.495981   
O41      O      0.831210000000     0.773370000000     0.201060000000    -0.496204   
O42      O      0.785850000000     0.822820000000     0.195870000000    -0.487972   
O43      O      0.839180000000     0.778240000000     0.292500000000    -0.486012   
O44      O      0.902670000000     0.835040000000     0.274450000000    -0.494882   
O45      O      0.837050000000     0.890920000000     0.212160000000    -0.496408   
O46      O      0.902530000000     0.817880000000     0.214500000000    -0.492561   
O47      O      0.782560000000     0.815120000000     0.286930000000    -0.496468   
O48      O      0.821060000000     0.889840000000     0.272500000000    -0.494241   
O49      O      0.245400000000     0.815910000000     0.286170000000    -0.496953   
O50      O      0.189680000000     0.777660000000     0.290200000000    -0.482442   
O51      O      0.194140000000     0.772760000000     0.199430000000    -0.485392   
O52      O      0.124270000000     0.818540000000     0.213620000000    -0.494963   
O53      O      0.207490000000     0.890370000000     0.269010000000    -0.493993   
O54      O      0.126550000000     0.835220000000     0.273520000000    -0.48349    
O55      O      0.242110000000     0.819810000000     0.194800000000    -0.501483   
O56      O      0.190980000000     0.889650000000     0.208570000000    -0.496208   
O57      O      0.246630000000     0.197570000000     0.209310000000    -0.505107   
O58      O      0.186970000000     0.193150000000     0.178900000000    -0.477407   
O59      O      0.190660000000     0.219210000000     0.287620000000    -0.500817   
O60      O      0.126060000000     0.146400000000     0.267990000000    -0.48916    
O61      O      0.192070000000     0.106390000000     0.207240000000    -0.486265   
O62      O      0.124580000000     0.199660000000     0.230670000000    -0.487632   
O63      O      0.243000000000     0.176140000000     0.287340000000    -0.487232   
O64      O      0.207220000000     0.104160000000     0.267770000000    -0.493238   
O65      O      0.188970000000     0.039160000000     0.166500000000    -0.272177   
O66      O      0.057480000000     0.846080000000     0.312790000000    -0.269375   
O67      O      0.802590000000     0.038300000000     0.310180000000    -0.271293   
O68      O      0.057560000000     0.117680000000     0.299410000000    -0.272967   
O69      O      0.847350000000     0.723150000000     0.346810000000    -0.272685   
O70      O      0.727990000000     0.823340000000     0.142010000000    -0.274375   
O71      O      0.843730000000     0.277490000000     0.343130000000    -0.273536   
O72      O      0.679170000000     0.276110000000     0.126890000000    -0.273323   
O73      O      0.720280000000     0.538050000000     0.926720000000    -0.272374   
O74      O      0.182940000000     0.720820000000     0.342800000000    -0.269048   
O75      O      0.192370000000     0.710300000000     0.153170000000    -0.273628   
O76      O      0.471290000000     0.659320000000     0.422230000000    -0.274741   
O77      O      0.222650000000     0.316970000000     0.396420000000    -0.270964   
O78      O      0.177630000000     0.223050000000     0.109620000000    -0.270775   
O79      O      0.471420000000     0.250680000000     0.518810000000    -0.273209   
O80      O      0.308590000000     0.538540000000     0.426000000000    -0.272045   
O81      O      0.280270000000     0.297400000000     0.522350000000    -0.495845   
O82      O      0.339160000000     0.301390000000     0.554250000000    -0.485224   
O83      O      0.284960000000     0.319310000000     0.945520000000    -0.476651   
O84      O      0.323690000000     0.389490000000     0.963450000000    -0.489871   
O85      O      0.401890000000     0.291210000000     0.502150000000    -0.476004   
O86      O      0.335940000000     0.388150000000     0.524660000000    -0.49775    
O87      O      0.336620000000     0.275780000000     0.943830000000    -0.502727   
O88      O      0.403690000000     0.346600000000     0.967680000000    -0.505262   
O89      O      0.281870000000     0.678000000000     0.951150000000    -0.489175   
O90      O      0.336600000000     0.717760000000     0.946420000000    -0.494376   
O91      O      0.286320000000     0.672510000000     0.541530000000    -0.495267   
O92      O      0.323360000000     0.605200000000     0.464460000000    -0.485264   
O93      O      0.402030000000     0.663920000000     0.962250000000    -0.485678   
O94      O      0.337580000000     0.603490000000     0.025190000000    -0.494526   
O95      O      0.333070000000     0.720990000000     0.537690000000    -0.49634    
O96      O      0.403860000000     0.674450000000     0.523420000000    -0.497215   
O97      O      0.687690000000     0.303580000000     0.556730000000    -0.47978    
O98      O      0.745930000000     0.295090000000     0.525690000000    -0.503085   
O99      O      0.690840000000     0.276160000000     0.945650000000    -0.499862   
O100     O      0.625810000000     0.291460000000     0.002860000000    -0.482222   
O101     O      0.704500000000     0.389230000000     0.464910000000    -0.490445   
O102     O      0.624280000000     0.347410000000     0.468960000000    -0.500812   
O103     O      0.743850000000     0.318320000000     0.949190000000    -0.485389   
O104     O      0.693790000000     0.388410000000     0.026200000000    -0.491945   
O105     O      0.741540000000     0.673280000000     0.542920000000    -0.496062   
O106     O      0.695550000000     0.722200000000     0.536040000000    -0.495982   
O107     O      0.747370000000     0.678420000000     0.952530000000    -0.493175   
O108     O      0.704770000000     0.604830000000     0.964570000000    -0.484408   
O109     O      0.625640000000     0.673780000000     0.523960000000    -0.492906   
O110     O      0.693220000000     0.603560000000     0.525590000000    -0.497701   
O111     O      0.691290000000     0.716070000000     0.945180000000    -0.493715   
O112     O      0.625860000000     0.663610000000     0.962600000000    -0.489793   
O113     O      0.780710000000     0.198800000000     0.714510000000    -0.500496   
O114     O      0.838450000000     0.191730000000     0.682170000000    -0.48765    
O115     O      0.785670000000     0.177460000000     0.790840000000    -0.489884   
O116     O      0.822130000000     0.105370000000     0.773640000000    -0.481163   
O117     O      0.902710000000     0.200540000000     0.732990000000    -0.484894   
O118     O      0.834150000000     0.105890000000     0.712720000000    -0.503512   
O119     O      0.839070000000     0.219070000000     0.792320000000    -0.489184   
O120     O      0.903310000000     0.147430000000     0.770750000000    -0.496073   
O121     O      0.831210000000     0.773360000000     0.701060000000    -0.496103   
O122     O      0.785850000000     0.822820000000     0.695870000000    -0.487993   
O123     O      0.839180000000     0.778240000000     0.792500000000    -0.486036   
O124     O      0.902670000000     0.835040000000     0.774450000000    -0.494989   
O125     O      0.837050000000     0.890920000000     0.712160000000    -0.496481   
O126     O      0.902530000000     0.817890000000     0.714500000000    -0.492734   
O127     O      0.782560000000     0.815120000000     0.786930000000    -0.496574   
O128     O      0.821060000000     0.889840000000     0.772500000000    -0.494307   
O129     O      0.245400000000     0.815910000000     0.786170000000    -0.497001   
O130     O      0.189680000000     0.777660000000     0.790200000000    -0.48248    
O131     O      0.194140000000     0.772760000000     0.699430000000    -0.485423   
O132     O      0.124270000000     0.818530000000     0.713620000000    -0.494992   
O133     O      0.207490000000     0.890370000000     0.769010000000    -0.494091   
O134     O      0.126550000000     0.835220000000     0.773520000000    -0.483536   
O135     O      0.242110000000     0.819810000000     0.694800000000    -0.501546   
O136     O      0.190980000000     0.889650000000     0.708570000000    -0.496331   
O137     O      0.246630000000     0.197570000000     0.709310000000    -0.505153   
O138     O      0.186970000000     0.193150000000     0.678900000000    -0.477476   
O139     O      0.190660000000     0.219210000000     0.787620000000    -0.500867   
O140     O      0.126060000000     0.146400000000     0.767990000000    -0.489162   
O141     O      0.192070000000     0.106390000000     0.707240000000    -0.486413   
O142     O      0.124580000000     0.199660000000     0.730670000000    -0.487754   
O143     O      0.243000000000     0.176140000000     0.787340000000    -0.487276   
O144     O      0.207220000000     0.104160000000     0.767760000000    -0.493524   
O145     O      0.188970000000     0.039160000000     0.666500000000    -0.272315   
O146     O      0.057480000000     0.846080000000     0.812790000000    -0.269382   
O147     O      0.802590000000     0.038300000000     0.810180000000    -0.271423   
O148     O      0.057560000000     0.117680000000     0.799410000000    -0.273029   
O149     O      0.847350000000     0.723150000000     0.846810000000    -0.272743   
O150     O      0.727990000000     0.823340000000     0.642010000000    -0.27443    
O151     O      0.843730000000     0.277490000000     0.843130000000    -0.273667   
O152     O      0.679170000000     0.276110000000     0.626890000000    -0.273396   
O153     O      0.720280000000     0.538060000000     0.426720000000    -0.272355   
O154     O      0.182940000000     0.720820000000     0.842800000000    -0.269191   
O155     O      0.192370000000     0.710300000000     0.653170000000    -0.273684   
O156     O      0.471290000000     0.659320000000     0.922230000000    -0.274797   
O157     O      0.222650000000     0.316970000000     0.896420000000    -0.271239   
O158     O      0.177630000000     0.223050000000     0.609630000000    -0.27105    
O159     O      0.471420000000     0.250680000000     0.018810000000    -0.269772   
O160     O      0.308590000000     0.538540000000     0.926000000000    -0.272118   


