data_structure

_audit_creation_method RASPA-1.0
_audit_creation_date 2023-5-23
_audit_author_name 'Poobodin Mano'

_cell_length_a    47.5201
_cell_length_b    47.5209
_cell_length_c    47.5211
_cell_angle_alpha 90.1036
_cell_angle_beta  89.95
_cell_angle_gamma 89.8446
_cell_volume      107311

_symmetry_cell_setting          triclinic
_symmetry_space_group_name_Hall 'P 1'
_symmetry_space_group_name_H-M  'P 1'
_symmetry_Int_Tables_number     1

_symmetry_equiv_pos_as_xyz 'x,y,z'

loop_
_atom_site_label
_atom_site_type_symbol
_atom_site_fract_x
_atom_site_fract_y
_atom_site_fract_z
_atom_site_charge
C1       C      0.076460000000     0.347120000000     0.910410000000     0.410195   
C2       C      0.179090000000     0.347350000000     0.910600000000     0.410003   
C3       C      0.130340000000     0.347930000000     0.981550000000     0.406265   
C4       C      0.125300000000     0.276210000000     0.909750000000     0.406183   
C5       C      0.147070000000     0.385940000000     0.192470000000     0.410163   
C6       C      0.147150000000     0.385870000000     0.089880000000     0.410095   
C7       C      0.146400000000     0.456970000000     0.143910000000     0.406349   
C8       C      0.218170000000     0.385170000000     0.138490000000     0.406222   
C9       C      0.179190000000     0.847190000000     0.121620000000     0.409884   
C10      C      0.076550000000     0.846980000000     0.121680000000     0.409896   
C11      C      0.130540000000     0.847780000000     0.050650000000     0.406846   
C12      C      0.125400000000     0.776120000000     0.122410000000     0.406168   
C13      C      0.108390000000     0.565390000000     0.160670000000     0.410275   
C14      C      0.108360000000     0.668010000000     0.160500000000     0.410332   
C15      C      0.037360000000     0.619470000000     0.159890000000     0.40627    
C16      C      0.109140000000     0.614170000000     0.231570000000     0.406211   
C17      C      0.108260000000     0.315280000000     0.371840000000     0.410224   
C18      C      0.108480000000     0.417920000000     0.371670000000     0.410174   
C19      C      0.109090000000     0.369120000000     0.300740000000     0.406029   
C20      C      0.037360000000     0.364120000000     0.372490000000     0.406162   
C21      C      0.429200000000     0.347140000000     0.121730000000     0.409892   
C22      C      0.326560000000     0.347160000000     0.121630000000     0.410191   
C23      C      0.375270000000     0.347910000000     0.050710000000     0.406688   
C24      C      0.380660000000     0.276150000000     0.122380000000     0.406309   
C25      C      0.826430000000     0.635800000000     0.121610000000     0.410007   
C26      C      0.929070000000     0.636010000000     0.121790000000     0.410036   
C27      C      0.875180000000     0.635200000000     0.050640000000     0.406139   
C28      C      0.880220000000     0.706930000000     0.122430000000     0.406215   
C29      C      0.647140000000     0.097110000000     0.839670000000     0.409751   
C30      C      0.647250000000     0.097150000000     0.942300000000     0.410123   
C31      C      0.646510000000     0.026140000000     0.888250000000     0.406452   
C32      C      0.718160000000     0.097870000000     0.893570000000     0.406468   
C33      C      0.608330000000     0.065420000000     0.660580000000     0.409964   
C34      C      0.608300000000     0.168040000000     0.660450000000     0.410045   
C35      C      0.537280000000     0.119520000000     0.659860000000     0.406377   
C36      C      0.609070000000     0.114180000000     0.731510000000     0.406525   
C37      C      0.428970000000     0.136160000000     0.621860000000     0.410169   
C38      C      0.326330000000     0.135950000000     0.621710000000     0.409969   
C39      C      0.380130000000     0.207080000000     0.622560000000     0.406379   
C40      C      0.375080000000     0.135330000000     0.550760000000     0.406261   
C41      C      0.108340000000     0.918070000000     0.660550000000     0.409635   
C42      C      0.108150000000     0.815430000000     0.660470000000     0.410299   
C43      C      0.108920000000     0.869470000000     0.731530000000     0.406618   
C44      C      0.037260000000     0.864260000000     0.659740000000     0.406664   
C45      C      0.647130000000     0.885890000000     0.589790000000     0.41019    
C46      C      0.647010000000     0.885980000000     0.692390000000     0.410015   
C47      C      0.718130000000     0.885200000000     0.638410000000     0.406305   
C48      C      0.646350000000     0.957000000000     0.643810000000     0.406715   
C49      C      0.608200000000     0.815300000000     0.871780000000     0.410047   
C50      C      0.608410000000     0.917940000000     0.871570000000     0.410151   
C51      C      0.609030000000     0.869140000000     0.800650000000     0.406416   
C52      C      0.537290000000     0.864160000000     0.872430000000     0.406412   
C53      C      0.897120000000     0.917810000000     0.160440000000     0.409874   
C54      C      0.897160000000     0.815210000000     0.160400000000     0.410033   
C55      C      0.968180000000     0.863720000000     0.159730000000     0.406595   
C56      C      0.896410000000     0.869250000000     0.231460000000     0.40653    
C57      C      0.608360000000     0.667860000000     0.371710000000     0.410062   
C58      C      0.608400000000     0.565260000000     0.371660000000     0.410111   
C59      C      0.537340000000     0.619350000000     0.372420000000     0.40655    
C60      C      0.609110000000     0.613820000000     0.300650000000     0.406207   
C61      C      0.647180000000     0.385820000000     0.442440000000     0.410199   
C62      C      0.647040000000     0.385980000000     0.339810000000     0.409961   
C63      C      0.646370000000     0.456930000000     0.388590000000     0.406506   
C64      C      0.718160000000     0.385160000000     0.393710000000     0.406629   
C65      C      0.647210000000     0.596990000000     0.192330000000     0.409997   
C66      C      0.647300000000     0.597170000000     0.089690000000     0.409843   
C67      C      0.718250000000     0.597750000000     0.138330000000     0.406108   
C68      C      0.646520000000     0.526100000000     0.143530000000     0.406393   
C69      C      0.608250000000     0.315380000000     0.160460000000     0.410148   
C70      C      0.608440000000     0.418010000000     0.160530000000     0.409849   
C71      C      0.537360000000     0.364210000000     0.159750000000     0.406322   
C72      C      0.609020000000     0.369400000000     0.231520000000     0.406594   
C73      C      0.858330000000     0.886090000000     0.339790000000     0.409824   
C74      C      0.858240000000     0.885960000000     0.442430000000     0.410258   
C75      C      0.859030000000     0.956980000000     0.388560000000     0.406583   
C76      C      0.787300000000     0.885330000000     0.393780000000     0.406745   
C77      C      0.397170000000     0.815140000000     0.371790000000     0.410045   
C78      C      0.397130000000     0.917770000000     0.371650000000     0.409841   
C79      C      0.468180000000     0.863670000000     0.372370000000     0.406162   
C80      C      0.396380000000     0.869000000000     0.300720000000     0.406476   
C81      C      0.576490000000     0.847050000000     0.410380000000     0.410357   
C82      C      0.679130000000     0.847260000000     0.410500000000     0.409925   
C83      C      0.630390000000     0.847880000000     0.481470000000     0.406341   
C84      C      0.625330000000     0.776130000000     0.409690000000     0.406444   
C85      C      0.397140000000     0.315340000000     0.660550000000     0.409759   
C86      C      0.397120000000     0.417940000000     0.660630000000     0.409702   
C87      C      0.396400000000     0.369370000000     0.731620000000     0.406551   
C88      C      0.468170000000     0.363840000000     0.659860000000     0.406613   
C89      C      0.576510000000     0.347060000000     0.621750000000     0.409952   
C90      C      0.679150000000     0.347230000000     0.621620000000     0.41004    
C91      C      0.625340000000     0.276160000000     0.622410000000     0.406509   
C92      C      0.630490000000     0.347810000000     0.550670000000     0.406209   
C93      C      0.179000000000     0.635970000000     0.621700000000     0.410319   
C94      C      0.076390000000     0.635990000000     0.621750000000     0.409881   
C95      C      0.124890000000     0.707040000000     0.622430000000     0.406351   
C96      C      0.130410000000     0.635230000000     0.550690000000     0.406348   
C97      C      0.147220000000     0.597080000000     0.339730000000     0.410033   
C98      C      0.147340000000     0.597150000000     0.442360000000     0.410234   
C99      C      0.146590000000     0.526120000000     0.388330000000     0.406245   
C100     C      0.218260000000     0.597840000000     0.393650000000     0.406604   
C101     C      0.429000000000     0.636140000000     0.410530000000     0.410272   
C102     C      0.326370000000     0.635950000000     0.410650000000     0.4103     
C103     C      0.375030000000     0.635380000000     0.481610000000     0.406365   
C104     C      0.380160000000     0.707020000000     0.409850000000     0.406714   
C105     C      0.358480000000     0.597230000000     0.692470000000     0.410205   
C106     C      0.358350000000     0.597380000000     0.589840000000     0.410086   
C107     C      0.359150000000     0.526270000000     0.643700000000     0.406162   
C108     C      0.287360000000     0.598030000000     0.638560000000     0.406318   
C109     C      0.147140000000     0.885860000000     0.942430000000     0.409999   
C110     C      0.146960000000     0.886060000000     0.839810000000     0.40974    
C111     C      0.146310000000     0.957010000000     0.888610000000     0.406151   
C112     C      0.218110000000     0.885260000000     0.893700000000     0.406114   
C113     C      0.358310000000     0.386220000000     0.839940000000     0.410054   
C114     C      0.358220000000     0.386040000000     0.942580000000     0.410204   
C115     C      0.358990000000     0.457100000000     0.888750000000     0.406444   
C116     C      0.287270000000     0.385440000000     0.893930000000     0.406315   
C117     C      0.429070000000     0.847280000000     0.910460000000     0.410088   
C118     C      0.326470000000     0.847320000000     0.910570000000     0.410221   
C119     C      0.380550000000     0.776240000000     0.909840000000     0.406789   
C120     C      0.375100000000     0.848040000000     0.981570000000     0.406196   
C121     C      0.397260000000     0.667830000000     0.871820000000     0.410352   
C122     C      0.397070000000     0.565200000000     0.871760000000     0.409869   
C123     C      0.396500000000     0.613800000000     0.800760000000     0.406158   
C124     C      0.468160000000     0.619000000000     0.872530000000     0.406245   
C125     C      0.826280000000     0.135990000000     0.910540000000     0.41012    
C126     C      0.928920000000     0.136180000000     0.910460000000     0.410091   
C127     C      0.880080000000     0.207050000000     0.909750000000     0.405959   
C128     C      0.874930000000     0.135380000000     0.981490000000     0.406128   
C129     C      0.678950000000     0.636040000000     0.910620000000     0.410128   
C130     C      0.576320000000     0.636080000000     0.910550000000     0.410037   
C131     C      0.630260000000     0.635300000000     0.981560000000     0.406281   
C132     C      0.624860000000     0.707060000000     0.909890000000     0.406422   
C133     C      0.826510000000     0.847170000000     0.621510000000     0.409884   
C134     C      0.929130000000     0.847150000000     0.621650000000     0.409981   
C135     C      0.880600000000     0.776140000000     0.622250000000     0.4065     
C136     C      0.875240000000     0.847880000000     0.550590000000     0.406873   
C137     C      0.897230000000     0.667880000000     0.660330000000     0.410281   
C138     C      0.897030000000     0.565230000000     0.660520000000     0.410326   
C139     C      0.968150000000     0.619040000000     0.659700000000     0.406471   
C140     C      0.896400000000     0.614040000000     0.731440000000     0.406377   
C141     C      0.858420000000     0.597220000000     0.839710000000     0.409983   
C142     C      0.858350000000     0.597280000000     0.942310000000     0.410009   
C143     C      0.787330000000     0.598000000000     0.893710000000     0.406667   
C144     C      0.859090000000     0.526200000000     0.888270000000     0.406469   
C145     C      0.897160000000     0.315160000000     0.871690000000     0.409772   
C146     C      0.897130000000     0.417780000000     0.871520000000     0.409822   
C147     C      0.968170000000     0.363690000000     0.872310000000     0.40638    
C148     C      0.896390000000     0.369000000000     0.800620000000     0.406614   
C149     C      0.826510000000     0.347170000000     0.410510000000     0.410201   
C150     C      0.929120000000     0.347140000000     0.410440000000     0.410007   
C151     C      0.875120000000     0.347900000000     0.481510000000     0.406385   
C152     C      0.880600000000     0.276100000000     0.409750000000     0.406423   
C153     C      0.858320000000     0.386070000000     0.692460000000     0.410222   
C154     C      0.858190000000     0.385990000000     0.589830000000     0.409839   
C155     C      0.787280000000     0.385310000000     0.638560000000     0.406314   
C156     C      0.858940000000     0.457030000000     0.643850000000     0.406167   
C157     C      0.358200000000     0.886060000000     0.089920000000     0.409993   
C158     C      0.358310000000     0.886090000000     0.192560000000     0.409962   
C159     C      0.358950000000     0.957060000000     0.143990000000     0.406633   
C160     C      0.287290000000     0.885320000000     0.138640000000     0.406389   
C161     C      0.897320000000     0.167710000000     0.371670000000     0.410218   
C162     C      0.897130000000     0.065080000000     0.371580000000     0.410059   
C163     C      0.896540000000     0.113680000000     0.300610000000     0.406232   
C164     C      0.968210000000     0.118880000000     0.372400000000     0.40639    
C165     C      0.108330000000     0.167940000000     0.871760000000     0.409838   
C166     C      0.108350000000     0.065350000000     0.871690000000     0.410365   
C167     C      0.037290000000     0.119430000000     0.872420000000     0.406424   
C168     C      0.109060000000     0.113910000000     0.800690000000     0.406416   
C169     C      0.178960000000     0.135980000000     0.410650000000     0.410017   
C170     C      0.076340000000     0.135990000000     0.410490000000     0.410149   
C171     C      0.130220000000     0.135260000000     0.481560000000     0.406381   
C172     C      0.124860000000     0.207010000000     0.409900000000     0.406236   
C173     C      0.147140000000     0.097050000000     0.692360000000     0.410095   
C174     C      0.147220000000     0.097180000000     0.589710000000     0.40969    
C175     C      0.218160000000     0.097840000000     0.638370000000     0.406548   
C176     C      0.146440000000     0.026160000000     0.643580000000     0.406156   
C177     C      0.858500000000     0.097080000000     0.192330000000     0.410085   
C178     C      0.858320000000     0.097290000000     0.089700000000     0.41045    
C179     C      0.859150000000     0.026140000000     0.143530000000     0.405955   
C180     C      0.787360000000     0.097910000000     0.138450000000     0.40628    
C181     C      0.679000000000     0.135880000000     0.121640000000     0.409898   
C182     C      0.576410000000     0.135940000000     0.121770000000     0.409978   
C183     C      0.624930000000     0.206980000000     0.122410000000     0.406262   
C184     C      0.630360000000     0.135190000000     0.050660000000     0.40657    
C185     C      0.358480000000     0.097210000000     0.339850000000     0.410225   
C186     C      0.358350000000     0.097310000000     0.442440000000     0.410327   
C187     C      0.287360000000     0.097970000000     0.393810000000     0.406608   
C188     C      0.359130000000     0.026180000000     0.388430000000     0.405955   
C189     C      0.397280000000     0.167890000000     0.160470000000     0.410261   
C190     C      0.397060000000     0.065250000000     0.160670000000     0.410237   
C191     C      0.468180000000     0.119030000000     0.159810000000     0.406172   
C192     C      0.396460000000     0.114050000000     0.231590000000     0.406315   
C193     C      0.394890000000     0.111590000000     0.308570000000     0.0333437  
C194     C      0.349780000000     0.100710000000     0.290940000000     0.0329091  
C195     C      0.359380000000     0.104970000000     0.263590000000     0.0327259  
C196     C      0.404650000000     0.115470000000     0.281040000000     0.0329143  
C197     C      0.545160000000     0.121490000000     0.158180000000     0.0334535  
C198     C      0.527490000000     0.132460000000     0.113100000000     0.0328385  
C199     C      0.500150000000     0.128180000000     0.122720000000     0.0327205  
C200     C      0.517640000000     0.117590000000     0.167960000000     0.0329206  
C201     C      0.755280000000     0.134970000000     0.129280000000     0.0326913  
C202     C      0.737920000000     0.089730000000     0.139950000000     0.0329061  
C203     C      0.710370000000     0.099500000000     0.136080000000     0.0334158  
C204     C      0.727900000000     0.144580000000     0.125040000000     0.0329721  
C205     C      0.128610000000     0.143360000000     0.531040000000     0.0328976  
C206     C      0.139670000000     0.098190000000     0.513430000000     0.0328054  
C207     C      0.143970000000     0.088560000000     0.540750000000     0.0328621  
C208     C      0.132540000000     0.133570000000     0.558540000000     0.0333829  
C209     C      0.210360000000     0.099620000000     0.396040000000     0.0335079  
C210     C      0.227890000000     0.144640000000     0.407450000000     0.0328104  
C211     C      0.255270000000     0.135020000000     0.403200000000     0.0328437  
C212     C      0.237920000000     0.089840000000     0.392160000000     0.032847   
C213     C      0.146130000000     0.104450000000     0.768680000000     0.0326663  
C214     C      0.100960000000     0.115580000000     0.751230000000     0.0328635  
C215     C      0.110760000000     0.111700000000     0.723690000000     0.0334719  
C216     C      0.155760000000     0.100200000000     0.741320000000     0.0328801  
C217     C      0.849830000000     0.100450000000     0.241280000000     0.0327828  
C218     C      0.894940000000     0.111340000000     0.223610000000     0.03348    
C219     C      0.904720000000     0.115150000000     0.251140000000     0.0328254  
C220     C      0.859460000000     0.104640000000     0.268630000000     0.0328236  
C221     C      0.000080000000     0.128260000000     0.409490000000     0.0326572  
C222     C      0.017690000000     0.117370000000     0.364290000000     0.0328164  
C223     C      0.045180000000     0.121330000000     0.374080000000     0.0334116  
C224     C      0.027400000000     0.132600000000     0.419120000000     0.0328982  
C225     C      0.350810000000     0.006550000000     0.142490000000     0.0328005  
C226     C      0.396040000000     0.988940000000     0.153150000000     0.0330087  
C227     C      0.405690000000     0.016270000000     0.157350000000     0.0326036  
C228     C      0.360610000000     0.034050000000     0.146310000000     0.0333634  
C229     C      0.889930000000     0.244040000000     0.372680000000     0.0328015  
C230     C      0.878970000000     0.226650000000     0.417870000000     0.0328208  
C231     C      0.882800000000     0.199100000000     0.408070000000     0.033495   
C232     C      0.894140000000     0.216660000000     0.363040000000     0.0327899  
C233     C      0.865650000000     0.384970000000     0.513520000000     0.0326664  
C234     C      0.876760000000     0.339800000000     0.530960000000     0.0328757  
C235     C      0.872860000000     0.349600000000     0.558500000000     0.0334187  
C236     C      0.861380000000     0.394600000000     0.540890000000     0.0329786  
C237     C      0.904500000000     0.367430000000     0.751150000000     0.0329693  
C238     C      0.859320000000     0.378460000000     0.768740000000     0.0327656  
C239     C      0.849690000000     0.382780000000     0.741410000000     0.0328725  
C240     C      0.894710000000     0.371370000000     0.723650000000     0.0333661  
C241     C      0.850970000000     0.476760000000     0.889910000000     0.0329576  
C242     C      0.896150000000     0.494110000000     0.878930000000     0.032746   
C243     C      0.905770000000     0.466720000000     0.874710000000     0.0328755  
C244     C      0.860750000000     0.449200000000     0.886070000000     0.0333938  
C245     C      0.859330000000     0.604950000000     0.763440000000     0.0326937  
C246     C      0.904590000000     0.615490000000     0.780900000000     0.0328622  
C247     C      0.894820000000     0.611610000000     0.808420000000     0.0334437  
C248     C      0.849720000000     0.600700000000     0.790800000000     0.0329343  
C249     C      0.905670000000     0.516260000000     0.657200000000     0.0329142  
C250     C      0.860590000000     0.534020000000     0.646160000000     0.0334157  
C251     C      0.850790000000     0.506510000000     0.642330000000     0.0329023  
C252     C      0.896030000000     0.488920000000     0.653000000000     0.0327345  
C253     C      0.879070000000     0.726660000000     0.614100000000     0.0328147  
C254     C      0.889760000000     0.744200000000     0.659340000000     0.0326711  
C255     C      0.893950000000     0.716850000000     0.668970000000     0.0329439  
C256     C      0.882880000000     0.699140000000     0.623900000000     0.033509   
C257     C      0.727880000000     0.644680000000     0.907410000000     0.032878   
C258     C      0.710330000000     0.599670000000     0.895970000000     0.0333868  
C259     C      0.737890000000     0.589890000000     0.892080000000     0.032933   
C260     C      0.755260000000     0.635060000000     0.903140000000     0.0327802  
C261     C      0.865900000000     0.098280000000     0.013410000000     0.0328632  
C262     C      0.876390000000     0.143540000000     0.030970000000     0.0328408  
C263     C      0.872580000000     0.133740000000     0.058480000000     0.0335481  
C264     C      0.861710000000     0.088640000000     0.040750000000     0.0328427  
C265     C      0.878590000000     0.256540000000     0.917870000000     0.0328923  
C266     C      0.889420000000     0.238900000000     0.872670000000     0.0328128  
C267     C      0.893740000000     0.266210000000     0.863040000000     0.032772   
C268     C      0.882540000000     0.284020000000     0.908090000000     0.0333893  
C269     C      0.977880000000     0.133030000000     0.919100000000     0.0328748  
C270     C      0.960290000000     0.121620000000     0.874080000000     0.0334935  
C271     C      0.987840000000     0.117780000000     0.864290000000     0.0329406  
C272     C      0.005260000000     0.128810000000     0.909470000000     0.0326983  
C273     C      0.517640000000     0.617450000000     0.864410000000     0.0329635  
C274     C      0.500050000000     0.628420000000     0.909590000000     0.0327637  
C275     C      0.527380000000     0.632740000000     0.919210000000     0.0328486  
C276     C      0.545130000000     0.621390000000     0.874180000000     0.0333512  
C277     C      0.376770000000     0.839930000000     0.031020000000     0.0329365  
C278     C      0.365630000000     0.885090000000     0.013610000000     0.0328353  
C279     C      0.361360000000     0.894710000000     0.040980000000     0.0328258  
C280     C      0.372880000000     0.849710000000     0.058560000000     0.0334791  
C281     C      0.378920000000     0.726800000000     0.917980000000     0.0329347  
C282     C      0.389870000000     0.744170000000     0.872780000000     0.0327368  
C283     C      0.394080000000     0.716780000000     0.863160000000     0.0328444  
C284     C      0.382750000000     0.699240000000     0.908200000000     0.033429   
C285     C      0.350860000000     0.506600000000     0.890240000000     0.0328969  
C286     C      0.396080000000     0.488940000000     0.879450000000     0.0327237  
C287     C      0.405710000000     0.516240000000     0.875160000000     0.0328965  
C288     C      0.360650000000     0.534080000000     0.886320000000     0.0333141  
C289     C      0.154480000000     0.006450000000     0.890120000000     0.0327487  
C290     C      0.109250000000     0.989080000000     0.879380000000     0.0329279  
C291     C      0.099650000000     0.016450000000     0.875100000000     0.0326802  
C292     C      0.144720000000     0.033990000000     0.886220000000     0.0334149  
C293     C      0.267540000000     0.893450000000     0.892230000000     0.0328219  
C294     C      0.250190000000     0.848200000000     0.902880000000     0.0327091  
C295     C      0.277570000000     0.838610000000     0.907140000000     0.0328997  
C296     C      0.295090000000     0.883690000000     0.896110000000     0.0335562  
C297     C      0.349790000000     0.600580000000     0.741420000000     0.0328323  
C298     C      0.394900000000     0.611490000000     0.723770000000     0.0334394  
C299     C      0.404680000000     0.615290000000     0.751300000000     0.0328929  
C300     C      0.359420000000     0.604760000000     0.768780000000     0.0328236  
C301     C      0.365980000000     0.598300000000     0.513550000000     0.0327356  
C302     C      0.376470000000     0.643580000000     0.531080000000     0.0328913  
C303     C      0.372640000000     0.633810000000     0.558600000000     0.0334208  
C304     C      0.361770000000     0.588690000000     0.540890000000     0.0328097  
C305     C      0.267750000000     0.589730000000     0.392130000000     0.0328843  
C306     C      0.250080000000     0.634930000000     0.403020000000     0.0328061  
C307     C      0.277400000000     0.644570000000     0.407320000000     0.0328247  
C308     C      0.295240000000     0.599530000000     0.396050000000     0.0334506  
C309     C      0.139880000000     0.598170000000     0.518670000000     0.0327822  
C310     C      0.128760000000     0.643320000000     0.501240000000     0.0329682  
C311     C      0.132660000000     0.633530000000     0.473700000000     0.0333908  
C312     C      0.144160000000     0.588530000000     0.491300000000     0.0328775  
C313     C      0.017600000000     0.617600000000     0.667890000000     0.0329031  
C314     C      0.000140000000     0.628210000000     0.622640000000     0.0326565  
C315     C      0.027490000000     0.632500000000     0.613040000000     0.0329246  
C316     C      0.045130000000     0.621510000000     0.658130000000     0.0333991  
C317     C      0.227900000000     0.644680000000     0.625110000000     0.0329402  
C318     C      0.210370000000     0.599610000000     0.636170000000     0.0334874  
C319     C      0.237920000000     0.589850000000     0.640060000000     0.0328691  
C320     C      0.255280000000     0.635080000000     0.629370000000     0.0327358  
C321     C      0.728120000000     0.338590000000     0.624930000000     0.0327575  
C322     C      0.710290000000     0.383640000000     0.636200000000     0.0335006  
C323     C      0.737780000000     0.393440000000     0.640100000000     0.0327722  
C324     C      0.755430000000     0.348230000000     0.629210000000     0.032816   
C325     C      0.359330000000     0.378820000000     0.763620000000     0.032683   
C326     C      0.404500000000     0.367710000000     0.781080000000     0.0328741  
C327     C      0.394700000000     0.371590000000     0.808620000000     0.0334812  
C328     C      0.349700000000     0.383070000000     0.790990000000     0.0329648  
C329     C      0.500180000000     0.354470000000     0.622780000000     0.0326986  
C330     C      0.517630000000     0.365460000000     0.667960000000     0.0329712  
C331     C      0.545170000000     0.361610000000     0.658160000000     0.0333488  
C332     C      0.527550000000     0.350240000000     0.613140000000     0.0329388  
C333     C      0.360750000000     0.449290000000     0.646090000000     0.0334091  
C334     C      0.405810000000     0.466840000000     0.657250000000     0.0329389  
C335     C      0.396210000000     0.494210000000     0.652970000000     0.032682   
C336     C      0.350990000000     0.476830000000     0.642180000000     0.0328869  
C337     C      0.404480000000     0.867430000000     0.251240000000     0.0329052  
C338     C      0.359310000000     0.878470000000     0.268840000000     0.0327703  
C339     C      0.349680000000     0.882790000000     0.241510000000     0.0328677  
C340     C      0.394690000000     0.871370000000     0.223750000000     0.0334412  
C341     C      0.517640000000     0.865190000000     0.364180000000     0.0328418  
C342     C      0.500160000000     0.854550000000     0.409430000000     0.0327947  
C343     C      0.527530000000     0.850360000000     0.419050000000     0.0328865  
C344     C      0.545170000000     0.861380000000     0.373960000000     0.0334507  
C345     C      0.382590000000     0.784000000000     0.408200000000     0.033346   
C346     C      0.393760000000     0.766200000000     0.363140000000     0.0328664  
C347     C      0.389460000000     0.738880000000     0.372770000000     0.0328242  
C348     C      0.378660000000     0.756510000000     0.417980000000     0.0329368  
C349     C      0.360760000000     0.949190000000     0.386200000000     0.0333988  
C350     C      0.405800000000     0.966690000000     0.374870000000     0.0329018  
C351     C      0.396190000000     0.994090000000     0.379100000000     0.0328931  
C352     C      0.350990000000     0.976750000000     0.390060000000     0.0329885  
C353     C      0.850910000000     0.006480000000     0.390060000000     0.0327127  
C354     C      0.896120000000     0.988810000000     0.379250000000     0.0330355  
C355     C      0.905760000000     0.016110000000     0.374950000000     0.0325795  
C356     C      0.860710000000     0.033960000000     0.386140000000     0.0333945  
C357     C      0.755420000000     0.848230000000     0.402890000000     0.0327366  
C358     C      0.737820000000     0.893490000000     0.392320000000     0.0329055  
C359     C      0.710310000000     0.883700000000     0.396160000000     0.0334146  
C360     C      0.728090000000     0.838600000000     0.407110000000     0.0328519  
C361     C      0.872910000000     0.849560000000     0.473610000000     0.0334162  
C362     C      0.861510000000     0.894580000000     0.491390000000     0.0328762  
C363     C      0.865800000000     0.884950000000     0.518720000000     0.0327997  
C364     C      0.876830000000     0.839770000000     0.501110000000     0.0329492  
C365     C      0.622740000000     0.283980000000     0.124060000000     0.0334201  
C366     C      0.611430000000     0.266430000000     0.169100000000     0.0329281  
C367     C      0.615630000000     0.239040000000     0.159470000000     0.0327078  
C368     C      0.626570000000     0.256420000000     0.114270000000     0.03292    
C369     C      0.609430000000     0.494270000000     0.152830000000     0.0327752  
C370     C      0.654650000000     0.476610000000     0.142050000000     0.0329359  
C371     C      0.644860000000     0.449130000000     0.145970000000     0.0333789  
C372     C      0.599800000000     0.466960000000     0.157140000000     0.0328782  
C373     C      0.632640000000     0.633590000000     0.058540000000     0.0333754  
C374     C      0.644000000000     0.588560000000     0.040730000000     0.0327819  
C375     C      0.639690000000     0.598210000000     0.013410000000     0.0328686  
C376     C      0.628700000000     0.643390000000     0.031050000000     0.0329428  
C377     C      0.750230000000     0.348090000000     0.402880000000     0.0327575  
C378     C      0.767590000000     0.393320000000     0.392190000000     0.0329383  
C379     C      0.795140000000     0.383550000000     0.396060000000     0.0334787  
C380     C      0.777610000000     0.338480000000     0.407130000000     0.032888   
C381     C      0.643760000000     0.394510000000     0.491390000000     0.0328749  
C382     C      0.632870000000     0.349400000000     0.473680000000     0.0334493  
C383     C      0.629040000000     0.339620000000     0.501200000000     0.0328268  
C384     C      0.639550000000     0.384890000000     0.518730000000     0.0327581  
C385     C      0.655720000000     0.382620000000     0.290860000000     0.0328509  
C386     C      0.610620000000     0.371710000000     0.308510000000     0.0334575  
C387     C      0.600840000000     0.367910000000     0.280980000000     0.0329465  
C388     C      0.646100000000     0.378440000000     0.263500000000     0.0327437  
C389     C      0.505340000000     0.628740000000     0.409500000000     0.0326641  
C390     C      0.487880000000     0.617720000000     0.364320000000     0.0328537  
C391     C      0.460340000000     0.621570000000     0.374130000000     0.0334975  
C392     C      0.477970000000     0.632960000000     0.419140000000     0.0329141  
C393     C      0.646180000000     0.604380000000     0.268660000000     0.0327074  
C394     C      0.601010000000     0.615480000000     0.251200000000     0.0329383  
C395     C      0.610810000000     0.611610000000     0.223660000000     0.0333991  
C396     C      0.655820000000     0.600140000000     0.241290000000     0.032883   
C397     C      0.654530000000     0.506370000000     0.390100000000     0.03291    
C398     C      0.609310000000     0.488990000000     0.379330000000     0.0327022  
C399     C      0.599710000000     0.516360000000     0.375040000000     0.0329562  
C400     C      0.644760000000     0.533920000000     0.386200000000     0.0334749  
C401     C      0.611780000000     0.716770000000     0.363020000000     0.0327645  
C402     C      0.622920000000     0.699150000000     0.408080000000     0.0334348  
C403     C      0.626830000000     0.726690000000     0.417850000000     0.0329681  
C404     C      0.616080000000     0.744120000000     0.372630000000     0.032826   
C405     C      0.859340000000     0.878690000000     0.263460000000     0.0326671  
C406     C      0.904510000000     0.867580000000     0.280910000000     0.0329701  
C407     C      0.894710000000     0.871450000000     0.308450000000     0.0334295  
C408     C      0.849710000000     0.882930000000     0.290830000000     0.0329614  
C409     C      0.860740000000     0.949150000000     0.145920000000     0.0334793  
C410     C      0.905810000000     0.966700000000     0.157030000000     0.0328343  
C411     C      0.896210000000     0.994070000000     0.152750000000     0.0330143  
C412     C      0.850980000000     0.976700000000     0.142020000000     0.032904   
C413     C      0.505320000000     0.855040000000     0.909520000000     0.0328339  
C414     C      0.487840000000     0.865610000000     0.864270000000     0.0328919  
C415     C      0.460310000000     0.861720000000     0.874050000000     0.0335317  
C416     C      0.477980000000     0.850760000000     0.919140000000     0.0327314  
C417     C      0.622570000000     0.784060000000     0.908210000000     0.0335414  
C418     C      0.611470000000     0.766330000000     0.863150000000     0.0328174  
C419     C      0.615670000000     0.738980000000     0.872800000000     0.0328091  
C420     C      0.626390000000     0.756540000000     0.918020000000     0.032836   
C421     C      0.750200000000     0.848140000000     0.628990000000     0.0327249  
C422     C      0.767560000000     0.893320000000     0.640040000000     0.0329995  
C423     C      0.795120000000     0.883540000000     0.636150000000     0.0334051  
C424     C      0.777580000000     0.838520000000     0.624730000000     0.0328578  
C425     C      0.632760000000     0.849480000000     0.558460000000     0.0334011  
C426     C      0.643710000000     0.894570000000     0.540880000000     0.032924   
C427     C      0.639480000000     0.884960000000     0.513510000000     0.0327077  
C428     C      0.628910000000     0.839710000000     0.530920000000     0.0329295  
C429     C      0.655710000000     0.882490000000     0.741300000000     0.0329057  
C430     C      0.610610000000     0.871590000000     0.723670000000     0.0334016  
C431     C      0.600840000000     0.867710000000     0.751200000000     0.032942   
C432     C      0.646100000000     0.878230000000     0.768650000000     0.0327544  
C433     C      0.987780000000     0.865770000000     0.667840000000     0.0329564  
C434     C      0.005390000000     0.854860000000     0.622650000000     0.0327036  
C435     C      0.978070000000     0.850530000000     0.613020000000     0.0328787  
C436     C      0.960290000000     0.861820000000     0.658050000000     0.0334598  
C437     C      0.146010000000     0.878510000000     0.763500000000     0.0327051  
C438     C      0.100740000000     0.868000000000     0.780990000000     0.0329212  
C439     C      0.110530000000     0.871800000000     0.808520000000     0.0334195  
C440     C      0.155630000000     0.882690000000     0.790860000000     0.0329554  
C441     C      0.111330000000     0.766490000000     0.669120000000     0.0328968  
C442     C      0.122680000000     0.784040000000     0.624090000000     0.0334775  
C443     C      0.126520000000     0.756480000000     0.614300000000     0.0328907  
C444     C      0.115550000000     0.739100000000     0.659490000000     0.0327512  
C445     C      0.144760000000     0.949180000000     0.645990000000     0.0333469  
C446     C      0.099710000000     0.967030000000     0.657180000000     0.0327926  
C447     C      0.109350000000     0.994340000000     0.652880000000     0.0330284  
C448     C      0.154560000000     0.976670000000     0.642080000000     0.0330079  
C449     C      0.366010000000     0.098250000000     0.518720000000     0.0328006  
C450     C      0.376550000000     0.143510000000     0.501320000000     0.032872   
C451     C      0.372700000000     0.133730000000     0.473780000000     0.03345    
C452     C      0.361780000000     0.088630000000     0.491360000000     0.0327933  
C453     C      0.378650000000     0.256530000000     0.614410000000     0.0329776  
C454     C      0.389380000000     0.239080000000     0.659630000000     0.0326736  
C455     C      0.393690000000     0.266440000000     0.669240000000     0.0329099  
C456     C      0.382580000000     0.284060000000     0.624180000000     0.0334517  
C457     C      0.277360000000     0.144580000000     0.625070000000     0.0329273  
C458     C      0.295150000000     0.099500000000     0.636040000000     0.0333573  
C459     C      0.267650000000     0.089700000000     0.639860000000     0.0329448  
C460     C      0.250030000000     0.134940000000     0.629280000000     0.0327082  
C461     C      0.487820000000     0.118010000000     0.668040000000     0.0329188  
C462     C      0.505290000000     0.128660000000     0.622800000000     0.0328075  
C463     C      0.477930000000     0.132860000000     0.613180000000     0.0328251  
C464     C      0.460290000000     0.121830000000     0.658270000000     0.0333822  
C465     C      0.654490000000     0.006440000000     0.642190000000     0.0327628  
C466     C      0.609290000000     0.989100000000     0.653130000000     0.0329423  
C467     C      0.599670000000     0.016490000000     0.657360000000     0.0326849  
C468     C      0.644710000000     0.034000000000     0.646040000000     0.0334189  
C469     C      0.611720000000     0.216980000000     0.669110000000     0.0328722  
C470     C      0.622880000000     0.199190000000     0.624050000000     0.0335293  
C471     C      0.626820000000     0.226680000000     0.614260000000     0.0328349  
C472     C      0.616030000000     0.244300000000     0.659490000000     0.0327227  
C473     C      0.767660000000     0.089770000000     0.892020000000     0.0328285  
C474     C      0.749990000000     0.134960000000     0.902940000000     0.0327475  
C475     C      0.777310000000     0.144600000000     0.907230000000     0.0328961  
C476     C      0.795140000000     0.099570000000     0.895940000000     0.0334468  
C477     C      0.609410000000     0.994260000000     0.879080000000     0.0329721  
C478     C      0.654650000000     0.976660000000     0.889760000000     0.0328745  
C479     C      0.644850000000     0.949150000000     0.885930000000     0.0334747  
C480     C      0.599780000000     0.966920000000     0.874880000000     0.0328537  
C481     C      0.655770000000     0.100400000000     0.790720000000     0.0328326  
C482     C      0.610750000000     0.111810000000     0.808480000000     0.0333793  
C483     C      0.600960000000     0.115760000000     0.780980000000     0.0329375  
C484     C      0.646140000000     0.104720000000     0.763390000000     0.0327664  
C485     C      0.644080000000     0.088510000000     0.991240000000     0.0327823  
C486     C      0.632580000000     0.133510000000     0.973660000000     0.0333932  
C487     C      0.628690000000     0.143300000000     0.001210000000     0.0329721  
C488     C      0.639820000000     0.098130000000     0.018620000000     0.0328575  
C489     C      0.876630000000     0.643410000000     0.001210000000     0.033114   
C490     C      0.866060000000     0.598150000000     0.018580000000     0.0328775  
C491     C      0.861810000000     0.588550000000     0.991210000000     0.0327637  
C492     C      0.872750000000     0.633660000000     0.973660000000     0.033208   
C493     C      0.878730000000     0.756380000000     0.114260000000     0.0329741  
C494     C      0.889440000000     0.738950000000     0.159490000000     0.0326787  
C495     C      0.893730000000     0.766310000000     0.169090000000     0.0329489  
C496     C      0.882640000000     0.783910000000     0.124020000000     0.033411   
C497     C      0.795240000000     0.599360000000     0.135930000000     0.0334619  
C498     C      0.777470000000     0.644460000000     0.125020000000     0.0329155  
C499     C      0.750140000000     0.634840000000     0.129240000000     0.0326661  
C500     C      0.767730000000     0.589570000000     0.139770000000     0.0328847  
C501     C      0.379120000000     0.226670000000     0.114240000000     0.0329001  
C502     C      0.389840000000     0.244220000000     0.159460000000     0.0327093  
C503     C      0.394020000000     0.216870000000     0.169100000000     0.0329613  
C504     C      0.382930000000     0.199150000000     0.124040000000     0.0334264  
C505     C      0.372900000000     0.349630000000     0.973730000000     0.0332082  
C506     C      0.361500000000     0.394640000000     0.991550000000     0.0328516  
C507     C      0.365810000000     0.385000000000     0.018870000000     0.0327956  
C508     C      0.376830000000     0.339830000000     0.001220000000     0.0330714  
C509     C      0.478130000000     0.350490000000     0.113070000000     0.0328691  
C510     C      0.460380000000     0.361810000000     0.158100000000     0.0335297  
C511     C      0.487880000000     0.365760000000     0.167880000000     0.0328527  
C512     C      0.505460000000     0.354810000000     0.122690000000     0.0327644  
C513     C      0.987900000000     0.365560000000     0.364310000000     0.033016   
C514     C      0.005370000000     0.354930000000     0.409550000000     0.0326978  
C515     C      0.978020000000     0.350620000000     0.419150000000     0.0328903  
C516     C      0.960380000000     0.361640000000     0.374060000000     0.0333568  
C517     C      0.144930000000     0.449120000000     0.386020000000     0.0334059  
C518     C      0.099850000000     0.466900000000     0.374990000000     0.0328578  
C519     C      0.109490000000     0.494230000000     0.379190000000     0.0327422  
C520     C      0.154730000000     0.476630000000     0.389840000000     0.0328881  
C521     C      0.122600000000     0.284010000000     0.408280000000     0.0333757  
C522     C      0.111540000000     0.266310000000     0.363190000000     0.0329362  
C523     C      0.115720000000     0.238950000000     0.372820000000     0.0326768  
C524     C      0.126400000000     0.256480000000     0.418070000000     0.032897   
C525     C      0.146220000000     0.604700000000     0.263460000000     0.0327098  
C526     C      0.101040000000     0.615740000000     0.281050000000     0.0328453  
C527     C      0.110840000000     0.611790000000     0.308550000000     0.0334939  
C528     C      0.155850000000     0.600380000000     0.290780000000     0.0328826  
C529     C      0.987890000000     0.617940000000     0.168040000000     0.0329127  
C530     C      0.005390000000     0.628550000000     0.122790000000     0.0325785  
C531     C      0.978030000000     0.632710000000     0.113150000000     0.033044   
C532     C      0.960360000000     0.621730000000     0.158240000000     0.0333856  
C533     C      0.139550000000     0.884880000000     0.018730000000     0.0329351  
C534     C      0.129090000000     0.839610000000     0.001180000000     0.0330581  
C535     C      0.132890000000     0.849400000000     0.973660000000     0.0332725  
C536     C      0.143740000000     0.894510000000     0.991390000000     0.0327245  
C537     C      0.126910000000     0.726630000000     0.114300000000     0.0329091  
C538     C      0.116070000000     0.744270000000     0.159500000000     0.0327867  
C539     C      0.111760000000     0.716960000000     0.169140000000     0.032789   
C540     C      0.122970000000     0.699140000000     0.124090000000     0.0334153  
C541     C      0.210310000000     0.883610000000     0.136240000000     0.0334223  
C542     C      0.228160000000     0.838580000000     0.124940000000     0.032843   
C543     C      0.255470000000     0.848230000000     0.129250000000     0.0327955  
C544     C      0.237790000000     0.893420000000     0.140160000000     0.0328848  
C545     C      0.045180000000     0.861550000000     0.158060000000     0.0334766  
C546     C      0.027590000000     0.850110000000     0.113050000000     0.0329357  
C547     C      0.000210000000     0.854330000000     0.122670000000     0.0326121  
C548     C      0.017630000000     0.865390000000     0.167850000000     0.0328553  
C549     C      0.250250000000     0.348120000000     0.129080000000     0.0327619  
C550     C      0.267610000000     0.393290000000     0.140150000000     0.0329828  
C551     C      0.295170000000     0.383520000000     0.136270000000     0.0334057  
C552     C      0.277630000000     0.338500000000     0.124830000000     0.0328277  
C553     C      0.109350000000     0.489060000000     0.153260000000     0.0326716  
C554     C      0.154540000000     0.506400000000     0.142270000000     0.0329419  
C555     C      0.144760000000     0.533970000000     0.146120000000     0.033484   
C556     C      0.099740000000     0.516460000000     0.157490000000     0.0329847  
C557     C      0.155770000000     0.382450000000     0.241380000000     0.0329114  
C558     C      0.110660000000     0.371560000000     0.223760000000     0.0333869  
C559     C      0.100900000000     0.367690000000     0.251290000000     0.0329826  
C560     C      0.146170000000     0.378200000000     0.268740000000     0.032647   
C561     C      0.126780000000     0.226760000000     0.917910000000     0.0329532  
C562     C      0.116080000000     0.244200000000     0.872680000000     0.0327005  
C563     C      0.111780000000     0.216840000000     0.863070000000     0.0329214  
C564     C      0.122860000000     0.199230000000     0.908140000000     0.0334101  
C565     C      0.128890000000     0.339730000000     0.030990000000     0.0328154  
C566     C      0.139440000000     0.384990000000     0.013600000000     0.0329136  
C567     C      0.143680000000     0.394590000000     0.040970000000     0.032833   
C568     C      0.132760000000     0.349490000000     0.058530000000     0.0334847  
C569     C      0.027490000000     0.350420000000     0.919050000000     0.0327832  
C570     C      0.045170000000     0.361420000000     0.873960000000     0.0333925  
C571     C      0.017630000000     0.365210000000     0.864160000000     0.0328928  
C572     C      0.000130000000     0.354600000000     0.909400000000     0.0327561  
C573     C      0.210280000000     0.383800000000     0.896290000000     0.0334443  
C574     C      0.228060000000     0.338700000000     0.907220000000     0.0328383  
C575     C      0.255390000000     0.348340000000     0.903010000000     0.0327334  
C576     C      0.237780000000     0.393600000000     0.892470000000     0.0328681  
H1       H      0.409610000000     0.114250000000     0.325780000000     0.0452097  
H2       H      0.327950000000     0.094750000000     0.293810000000     0.0445326  
H3       H      0.344560000000     0.102090000000     0.246490000000     0.0452406  
H4       H      0.426530000000     0.121140000000     0.277980000000     0.0456035  
H5       H      0.562390000000     0.118800000000     0.172890000000     0.0451984  
H6       H      0.530340000000     0.138470000000     0.091270000000     0.0445691  
H7       H      0.483040000000     0.131090000000     0.107910000000     0.0452393  
H8       H      0.514600000000     0.111870000000     0.189830000000     0.0455947  
H9       H      0.772350000000     0.149790000000     0.126330000000     0.0452426  
H10      H      0.741030000000     0.067870000000     0.145680000000     0.0456062  
H11      H      0.693190000000     0.084780000000     0.138800000000     0.0451962  
H12      H      0.724990000000     0.166400000000     0.119010000000     0.0445443  
H13      H      0.122700000000     0.165210000000     0.528050000000     0.0455952  
H14      H      0.142760000000     0.083410000000     0.496270000000     0.0451984  
H15      H      0.150170000000     0.066760000000     0.543540000000     0.0445306  
H16      H      0.129670000000     0.148250000000     0.575810000000     0.0452277  
H17      H      0.193170000000     0.084930000000     0.393160000000     0.0451977  
H18      H      0.224970000000     0.166440000000     0.413630000000     0.0445897  
H19      H      0.272340000000     0.149810000000     0.406310000000     0.0452047  
H20      H      0.241030000000     0.068000000000     0.386270000000     0.0456173  
H21      H      0.160900000000     0.101320000000     0.785790000000     0.0452461  
H22      H      0.079120000000     0.121500000000     0.754300000000     0.0456262  
H23      H      0.096090000000     0.114610000000     0.706470000000     0.0452153  
H24      H      0.177560000000     0.093990000000     0.738450000000     0.0445516  
H25      H      0.827990000000     0.094510000000     0.238430000000     0.0445604  
H26      H      0.909660000000     0.114030000000     0.206380000000     0.0451725  
H27      H      0.926600000000     0.120800000000     0.254190000000     0.0456199  
H28      H      0.844640000000     0.101730000000     0.285750000000     0.0451972  
H29      H      0.982930000000     0.131280000000     0.424270000000     0.0452762  
H30      H      0.014700000000     0.111520000000     0.342430000000     0.045591   
H31      H      0.062450000000     0.118540000000     0.359400000000     0.0452125  
H32      H      0.030180000000     0.138740000000     0.440930000000     0.0445144  
H33      H      0.328930000000     0.003560000000     0.136770000000     0.045544   
H34      H      0.410840000000     0.971790000000     0.156110000000     0.0451976  
H35      H      0.427520000000     0.019070000000     0.163360000000     0.0445723  
H36      H      0.345910000000     0.051320000000     0.143570000000     0.045195   
H37      H      0.893010000000     0.261120000000     0.357900000000     0.0452131  
H38      H      0.873120000000     0.229750000000     0.439720000000     0.0456455  
H39      H      0.879940000000     0.181900000000     0.422750000000     0.0452057  
H40      H      0.900270000000     0.213750000000     0.341240000000     0.0445981  
H41      H      0.862530000000     0.399740000000     0.496430000000     0.0452513  
H42      H      0.882680000000     0.317960000000     0.527880000000     0.0456396  
H43      H      0.875760000000     0.334930000000     0.575710000000     0.0452367  
H44      H      0.855170000000     0.416400000000     0.543770000000     0.0445416  
H45      H      0.926350000000     0.361520000000     0.754140000000     0.0455773  
H46      H      0.844540000000     0.381530000000     0.785880000000     0.0452217  
H47      H      0.827890000000     0.388970000000     0.738610000000     0.0445578  
H48      H      0.909390000000     0.368530000000     0.706390000000     0.0452387  
H49      H      0.829120000000     0.479880000000     0.895770000000     0.0456207  
H50      H      0.910940000000     0.511170000000     0.875840000000     0.0452258  
H51      H      0.927580000000     0.463790000000     0.868570000000     0.0445849  
H52      H      0.846060000000     0.432020000000     0.888930000000     0.0452372  
H53      H      0.844510000000     0.602050000000     0.746350000000     0.0452398  
H54      H      0.926460000000     0.621170000000     0.777830000000     0.0456366  
H55      H      0.909540000000     0.614290000000     0.825640000000     0.0452139  
H56      H      0.827890000000     0.594720000000     0.793670000000     0.0445521  
H57      H      0.927500000000     0.519060000000     0.663210000000     0.0445369  
H58      H      0.845890000000     0.551290000000     0.643410000000     0.0451991  
H59      H      0.828920000000     0.503520000000     0.636610000000     0.0455896  
H60      H      0.910840000000     0.471770000000     0.655970000000     0.0452328  
H61      H      0.873340000000     0.729690000000     0.592230000000     0.0456264  
H62      H      0.892740000000     0.761330000000     0.674140000000     0.0452472  
H63      H      0.899960000000     0.714020000000     0.690800000000     0.0445438  
H64      H      0.880130000000     0.681890000000     0.609190000000     0.0451746  
H65      H      0.724970000000     0.666480000000     0.913600000000     0.0445591  
H66      H      0.693140000000     0.585000000000     0.893090000000     0.0452405  
H67      H      0.740990000000     0.568050000000     0.886170000000     0.0456193  
H68      H      0.772340000000     0.649840000000     0.906240000000     0.0452181  
H69      H      0.863000000000     0.083460000000     0.996270000000     0.0451314  
H70      H      0.882040000000     0.165420000000     0.027960000000     0.0456351  
H71      H      0.875260000000     0.148460000000     0.075730000000     0.0451598  
H72      H      0.855780000000     0.066800000000     0.043560000000     0.0445396  
H73      H      0.872770000000     0.253560000000     0.939730000000     0.0455994  
H74      H      0.892410000000     0.221740000000     0.857870000000     0.045226   
H75      H      0.899860000000     0.268990000000     0.841230000000     0.0445869  
H76      H      0.879780000000     0.301300000000     0.922780000000     0.045234   
H77      H      0.974990000000     0.139190000000     0.940900000000     0.0445568  
H78      H      0.943080000000     0.118740000000     0.859390000000     0.0451984  
H79      H      0.990920000000     0.111900000000     0.842440000000     0.0456042  
H80      H      0.022350000000     0.131920000000     0.924250000000     0.0452132  
H81      H      0.514630000000     0.611560000000     0.842560000000     0.0456     
H82      H      0.482910000000     0.631460000000     0.924390000000     0.0452193  
H83      H      0.530180000000     0.638910000000     0.941010000000     0.0445485  
H84      H      0.562390000000     0.618570000000     0.859490000000     0.0452528  
H85      H      0.382710000000     0.818090000000     0.027930000000     0.0456463  
H86      H      0.362490000000     0.899860000000     0.996520000000     0.0451662  
H87      H      0.355140000000     0.916500000000     0.043880000000     0.0446212  
H88      H      0.375790000000     0.835030000000     0.075770000000     0.0452369  
H89      H      0.373080000000     0.729910000000     0.939830000000     0.0456022  
H90      H      0.392950000000     0.761240000000     0.857990000000     0.0452273  
H91      H      0.400200000000     0.713860000000     0.841360000000     0.0445832  
H92      H      0.379900000000     0.682050000000     0.922890000000     0.0452068  
H93      H      0.329000000000     0.503640000000     0.896040000000     0.0455792  
H94      H      0.410880000000     0.471770000000     0.876470000000     0.0452394  
H95      H      0.427530000000     0.519010000000     0.869070000000     0.0445436  
H96      H      0.345960000000     0.551370000000     0.889080000000     0.0452318  
H97      H      0.176340000000     0.003350000000     0.895890000000     0.045599   
H98      H      0.094440000000     0.972000000000     0.876400000000     0.0452299  
H99      H      0.077840000000     0.019350000000     0.869030000000     0.0445424  
H100     H      0.159430000000     0.051180000000     0.888960000000     0.0451999  
H101     H      0.264430000000     0.915310000000     0.886490000000     0.0456616  
H102     H      0.233130000000     0.833380000000     0.905820000000     0.0452337  
H103     H      0.280490000000     0.816790000000     0.913170000000     0.0445522  
H104     H      0.312280000000     0.898420000000     0.893390000000     0.0451958  
H105     H      0.327960000000     0.594640000000     0.738570000000     0.0445571  
H106     H      0.409620000000     0.614190000000     0.706540000000     0.0451925  
H107     H      0.426560000000     0.620950000000     0.754350000000     0.0456054  
H108     H      0.344590000000     0.601840000000     0.785890000000     0.0452008  
H109     H      0.363080000000     0.583480000000     0.496420000000     0.0452308  
H110     H      0.382120000000     0.665460000000     0.528050000000     0.0456052  
H111     H      0.375310000000     0.648530000000     0.575840000000     0.0451906  
H112     H      0.355830000000     0.566860000000     0.543720000000     0.0445613  
H113     H      0.264790000000     0.567870000000     0.386290000000     0.045584   
H114     H      0.232920000000     0.649720000000     0.406040000000     0.0452061  
H115     H      0.280160000000     0.666380000000     0.413450000000     0.0445517  
H116     H      0.312520000000     0.584840000000     0.393260000000     0.0452029  
H117     H      0.143010000000     0.583400000000     0.535770000000     0.0452216  
H118     H      0.122830000000     0.665160000000     0.504310000000     0.0456009  
H119     H      0.129760000000     0.648200000000     0.456490000000     0.0452431  
H120     H      0.150380000000     0.566740000000     0.488430000000     0.0445552  
H121     H      0.014540000000     0.611870000000     0.689760000000     0.0456021  
H122     H      0.983040000000     0.631130000000     0.607820000000     0.0452755  
H123     H      0.030350000000     0.638520000000     0.591220000000     0.0445234  
H124     H      0.062340000000     0.618820000000     0.672850000000     0.0452078  
H125     H      0.224980000000     0.666500000000     0.619070000000     0.0445505  
H126     H      0.193190000000     0.584890000000     0.638900000000     0.0451917  
H127     H      0.241040000000     0.567990000000     0.645800000000     0.0456487  
H128     H      0.272340000000     0.649900000000     0.626420000000     0.045227   
H129     H      0.725350000000     0.316780000000     0.618800000000     0.044572   
H130     H      0.693010000000     0.398330000000     0.639000000000     0.0451899  
H131     H      0.740750000000     0.415290000000     0.645940000000     0.0456224  
H132     H      0.772600000000     0.333440000000     0.626180000000     0.0452213  
H133     H      0.344560000000     0.381950000000     0.746520000000     0.0452396  
H134     H      0.426340000000     0.361790000000     0.778020000000     0.0456108  
H135     H      0.409370000000     0.368690000000     0.825840000000     0.0452119  
H136     H      0.327900000000     0.389280000000     0.793850000000     0.0445301  
H137     H      0.483080000000     0.351380000000     0.608000000000     0.0452279  
H138     H      0.514560000000     0.371330000000     0.689810000000     0.0455976  
H139     H      0.562390000000     0.364470000000     0.672830000000     0.045251   
H140     H      0.530420000000     0.344100000000     0.591330000000     0.044547   
H141     H      0.346050000000     0.432090000000     0.643320000000     0.0452454  
H142     H      0.427620000000     0.463940000000     0.663330000000     0.0445488  
H143     H      0.411010000000     0.511280000000     0.655960000000     0.0452548  
H144     H      0.329140000000     0.479930000000     0.636390000000     0.0456478  
H145     H      0.426330000000     0.861510000000     0.254240000000     0.0456134  
H146     H      0.344530000000     0.881550000000     0.285980000000     0.0452316  
H147     H      0.327880000000     0.889000000000     0.238710000000     0.0445688  
H148     H      0.409370000000     0.868520000000     0.206480000000     0.0452343  
H149     H      0.514580000000     0.870890000000     0.342310000000     0.0456289  
H150     H      0.483060000000     0.851580000000     0.424250000000     0.0452048  
H151     H      0.530390000000     0.844370000000     0.440880000000     0.0445597  
H152     H      0.562400000000     0.864120000000     0.359250000000     0.0452077  
H153     H      0.379830000000     0.801270000000     0.422890000000     0.0452384  
H154     H      0.399860000000     0.768980000000     0.341320000000     0.0445544  
H155     H      0.392450000000     0.721720000000     0.357970000000     0.0452156  
H156     H      0.372860000000     0.753530000000     0.439850000000     0.0455941  
H157     H      0.346070000000     0.932010000000     0.389050000000     0.0452493  
H158     H      0.427600000000     0.963770000000     0.368730000000     0.0445902  
H159     H      0.410980000000     0.011150000000     0.376020000000     0.0450649  
H160     H      0.329140000000     0.979870000000     0.395900000000     0.0456596  
H161     H      0.829050000000     0.003520000000     0.395870000000     0.0455743  
H162     H      0.910920000000     0.971640000000     0.376250000000     0.045198   
H163     H      0.927580000000     0.018870000000     0.368850000000     0.0445774  
H164     H      0.846020000000     0.051240000000     0.388910000000     0.0451999  
H165     H      0.772570000000     0.833420000000     0.405810000000     0.0452293  
H166     H      0.740810000000     0.915360000000     0.386630000000     0.0456017  
H167     H      0.693050000000     0.898410000000     0.393460000000     0.0452063  
H168     H      0.725300000000     0.816770000000     0.413090000000     0.0445475  
H169     H      0.875760000000     0.834880000000     0.456340000000     0.0452316  
H170     H      0.855320000000     0.916390000000     0.488600000000     0.0445719  
H171     H      0.862720000000     0.899740000000     0.535870000000     0.0452284  
H172     H      0.882730000000     0.817920000000     0.504090000000     0.0455806  
H173     H      0.625590000000     0.301170000000     0.109370000000     0.0452326  
H174     H      0.605310000000     0.269340000000     0.190910000000     0.0445513  
H175     H      0.612560000000     0.221960000000     0.174260000000     0.0452321  
H176     H      0.632400000000     0.253310000000     0.092420000000     0.0456264  
H177     H      0.594630000000     0.511440000000     0.155820000000     0.0452307  
H178     H      0.676520000000     0.479570000000     0.136240000000     0.0455827  
H179     H      0.659550000000     0.431840000000     0.143210000000     0.0452262  
H180     H      0.577980000000     0.464200000000     0.163230000000     0.0445493  
H181     H      0.629800000000     0.648260000000     0.075820000000     0.0452454  
H182     H      0.650180000000     0.566760000000     0.043510000000     0.0445931  
H183     H      0.642760000000     0.583440000000     0.996250000000     0.0451567  
H184     H      0.622820000000     0.665240000000     0.028080000000     0.0456032  
H185     H      0.733160000000     0.333280000000     0.405850000000     0.0452189  
H186     H      0.764490000000     0.415180000000     0.386450000000     0.0456124  
H187     H      0.812330000000     0.398260000000     0.393320000000     0.0452055  
H188     H      0.780520000000     0.316660000000     0.413160000000     0.0445567  
H189     H      0.649710000000     0.416340000000     0.488560000000     0.0445533  
H190     H      0.630190000000     0.334670000000     0.456440000000     0.045177   
H191     H      0.623380000000     0.317750000000     0.504220000000     0.0456105  
H192     H      0.642450000000     0.399710000000     0.535860000000     0.0452267  
H193     H      0.677550000000     0.388570000000     0.293720000000     0.0445646  
H194     H      0.595900000000     0.369010000000     0.325740000000     0.0451851  
H195     H      0.578960000000     0.362250000000     0.277930000000     0.0455896  
H196     H      0.660920000000     0.381370000000     0.246390000000     0.0452184  
H197     H      0.522440000000     0.631830000000     0.424270000000     0.0452531  
H198     H      0.490950000000     0.611850000000     0.342470000000     0.0456312  
H199     H      0.443120000000     0.618700000000     0.359450000000     0.0452043  
H200     H      0.475090000000     0.639120000000     0.440950000000     0.0445583  
H201     H      0.660950000000     0.601260000000     0.285760000000     0.0452393  
H202     H      0.579170000000     0.621390000000     0.254260000000     0.0456057  
H203     H      0.596140000000     0.614510000000     0.206440000000     0.0452477  
H204     H      0.677620000000     0.593940000000     0.238420000000     0.0445673  
H205     H      0.676390000000     0.503270000000     0.395890000000     0.0456385  
H206     H      0.594510000000     0.471920000000     0.376340000000     0.0452449  
H207     H      0.577900000000     0.519260000000     0.368960000000     0.044537   
H208     H      0.659470000000     0.551110000000     0.388960000000     0.0452023  
H209     H      0.605710000000     0.713890000000     0.341210000000     0.0445952  
H210     H      0.625660000000     0.681950000000     0.422790000000     0.045217   
H211     H      0.632620000000     0.729750000000     0.439710000000     0.045598   
H212     H      0.613110000000     0.761210000000     0.357820000000     0.0452133  
H213     H      0.844570000000     0.881820000000     0.246360000000     0.0452581  
H214     H      0.926350000000     0.861660000000     0.277850000000     0.0456053  
H215     H      0.909390000000     0.868550000000     0.325670000000     0.045241   
H216     H      0.827910000000     0.889140000000     0.293700000000     0.0445615  
H217     H      0.846030000000     0.931960000000     0.143170000000     0.0452295  
H218     H      0.927630000000     0.963800000000     0.163100000000     0.0446108  
H219     H      0.911020000000     0.011150000000     0.155720000000     0.0450624  
H220     H      0.829120000000     0.979800000000     0.136240000000     0.0456949  
H221     H      0.522430000000     0.852130000000     0.924330000000     0.0452108  
H222     H      0.490880000000     0.871320000000     0.842400000000     0.0456172  
H223     H      0.443090000000     0.864400000000     0.859330000000     0.0451825  
H224     H      0.475130000000     0.844770000000     0.940960000000     0.0445814  
H225     H      0.625340000000     0.801310000000     0.922910000000     0.0451575  
H226     H      0.605440000000     0.769150000000     0.841330000000     0.0445642  
H227     H      0.612680000000     0.721840000000     0.858000000000     0.0452026  
H228     H      0.632130000000     0.753520000000     0.939890000000     0.0456059  
H229     H      0.733120000000     0.833360000000     0.625900000000     0.0452401  
H230     H      0.764460000000     0.915170000000     0.645930000000     0.0456201  
H231     H      0.812310000000     0.898220000000     0.639020000000     0.0452652  
H232     H      0.780490000000     0.816720000000     0.618550000000     0.044577   
H233     H      0.630070000000     0.834770000000     0.575660000000     0.0452253  
H234     H      0.649680000000     0.916400000000     0.543770000000     0.044564   
H235     H      0.642400000000     0.899780000000     0.496430000000     0.0452506  
H236     H      0.623220000000     0.817840000000     0.527830000000     0.0456252  
H237     H      0.677540000000     0.888460000000     0.738440000000     0.0445503  
H238     H      0.595890000000     0.868920000000     0.706460000000     0.0452151  
H239     H      0.578970000000     0.862030000000     0.754260000000     0.0456112  
H240     H      0.660930000000     0.881120000000     0.785750000000     0.0452334  
H241     H      0.990770000000     0.871640000000     0.689700000000     0.0456069  
H242     H      0.022540000000     0.851840000000     0.607870000000     0.0452418  
H243     H      0.975280000000     0.844370000000     0.591210000000     0.0445579  
H244     H      0.943020000000     0.864610000000     0.672740000000     0.0452255  
H245     H      0.160830000000     0.881420000000     0.746390000000     0.0452394  
H246     H      0.078860000000     0.862350000000     0.777950000000     0.0455856  
H247     H      0.095810000000     0.869120000000     0.825750000000     0.0451914  
H248     H      0.177470000000     0.888630000000     0.793710000000     0.0445448  
H249     H      0.105190000000     0.769400000000     0.690920000000     0.0445625  
H250     H      0.125540000000     0.801230000000     0.609400000000     0.0452011  
H251     H      0.132380000000     0.753380000000     0.592450000000     0.0456223  
H252     H      0.112470000000     0.722020000000     0.674270000000     0.0452241  
H253     H      0.159450000000     0.931900000000     0.643220000000     0.045243   
H254     H      0.077890000000     0.964270000000     0.663280000000     0.0445956  
H255     H      0.094550000000     0.011510000000     0.655880000000     0.045039   
H256     H      0.176420000000     0.979620000000     0.636270000000     0.0456124  
H257     H      0.363100000000     0.083430000000     0.535810000000     0.0452038  
H258     H      0.382230000000     0.165380000000     0.504400000000     0.0456252  
H259     H      0.375390000000     0.148440000000     0.456580000000     0.0452055  
H260     H      0.355810000000     0.066800000000     0.488470000000     0.0445595  
H261     H      0.372870000000     0.253470000000     0.592550000000     0.0455992  
H262     H      0.392340000000     0.221990000000     0.674430000000     0.0452486  
H263     H      0.399760000000     0.269300000000     0.691050000000     0.0445375  
H264     H      0.379840000000     0.301270000000     0.609470000000     0.0452079  
H265     H      0.280150000000     0.166420000000     0.619100000000     0.0445325  
H266     H      0.312420000000     0.084800000000     0.638750000000     0.0451929  
H267     H      0.264660000000     0.067820000000     0.645550000000     0.0455648  
H268     H      0.232870000000     0.149740000000     0.626340000000     0.0452428  
H269     H      0.490880000000     0.112300000000     0.689910000000     0.0455949  
H270     H      0.522400000000     0.131630000000     0.607980000000     0.0451983  
H271     H      0.475070000000     0.138860000000     0.591360000000     0.0445627  
H272     H      0.443060000000     0.119080000000     0.672980000000     0.0451992  
H273     H      0.676340000000     0.003320000000     0.636350000000     0.0455948  
H274     H      0.594500000000     0.972030000000     0.656200000000     0.0452203  
H275     H      0.577860000000     0.019410000000     0.663490000000     0.0445585  
H276     H      0.659400000000     0.051180000000     0.643200000000     0.0452099  
H277     H      0.605620000000     0.214200000000     0.690930000000     0.0445492  
H278     H      0.625630000000     0.181920000000     0.609340000000     0.0451765  
H279     H      0.632620000000     0.229660000000     0.592400000000     0.0456118  
H280     H      0.613050000000     0.261450000000     0.674290000000     0.0452432  
H281     H      0.764700000000     0.067910000000     0.886170000000     0.0455831  
H282     H      0.732820000000     0.149740000000     0.905980000000     0.0452332  
H283     H      0.780070000000     0.166420000000     0.913370000000     0.0445389  
H284     H      0.812430000000     0.084890000000     0.893120000000     0.045193   
H285     H      0.594610000000     0.011410000000     0.876110000000     0.0450528  
H286     H      0.676520000000     0.979650000000     0.895490000000     0.0456458  
H287     H      0.659550000000     0.931880000000     0.888680000000     0.0452024  
H288     H      0.577950000000     0.964130000000     0.868860000000     0.0445871  
H289     H      0.677570000000     0.094200000000     0.793520000000     0.0445562  
H290     H      0.596070000000     0.114660000000     0.825740000000     0.0452266  
H291     H      0.579110000000     0.121670000000     0.777990000000     0.0455742  
H292     H      0.660920000000     0.101650000000     0.746250000000     0.0452092  
H293     H      0.650290000000     0.066710000000     0.988350000000     0.0445393  
H294     H      0.629680000000     0.148190000000     0.956460000000     0.0452209  
H295     H      0.622760000000     0.165140000000     0.004290000000     0.0456206  
H296     H      0.642950000000     0.083350000000     0.035710000000     0.0452045  
H297     H      0.882320000000     0.665280000000     0.004300000000     0.0455838  
H298     H      0.863150000000     0.583320000000     0.035660000000     0.0452098  
H299     H      0.855820000000     0.566730000000     0.988310000000     0.0445629  
H300     H      0.875440000000     0.648380000000     0.956470000000     0.045245   
H301     H      0.872960000000     0.753300000000     0.092390000000     0.0456284  
H302     H      0.892400000000     0.721860000000     0.174300000000     0.0452546  
H303     H      0.899790000000     0.769180000000     0.190910000000     0.0445413  
H304     H      0.879900000000     0.801110000000     0.109310000000     0.045233   
H305     H      0.812500000000     0.584640000000     0.138610000000     0.0451844  
H306     H      0.780270000000     0.666300000000     0.119060000000     0.0445458  
H307     H      0.732990000000     0.649650000000     0.126330000000     0.0452581  
H308     H      0.764740000000     0.567690000000     0.145440000000     0.0455922  
H309     H      0.373380000000     0.229690000000     0.092370000000     0.0456067  
H310     H      0.392830000000     0.261350000000     0.174260000000     0.0452323  
H311     H      0.400050000000     0.214040000000     0.190930000000     0.0445422  
H312     H      0.380160000000     0.181900000000     0.109340000000     0.0451981  
H313     H      0.375750000000     0.334960000000     0.956450000000     0.0452575  
H314     H      0.355310000000     0.416450000000     0.988770000000     0.0445343  
H315     H      0.362740000000     0.399770000000     0.036030000000     0.0452426  
H316     H      0.382730000000     0.317980000000     0.004200000000     0.0455737  
H317     H      0.475330000000     0.344320000000     0.091270000000     0.0445575  
H318     H      0.443120000000     0.364630000000     0.172800000000     0.0451942  
H319     H      0.490880000000     0.371630000000     0.189730000000     0.0456249  
H320     H      0.522600000000     0.351770000000     0.107900000000     0.0452441  
H321     H      0.990950000000     0.371290000000     0.342440000000     0.0456031  
H322     H      0.022470000000     0.352000000000     0.424370000000     0.0452327  
H323     H      0.975160000000     0.344590000000     0.440960000000     0.0445656  
H324     H      0.943160000000     0.364330000000     0.359340000000     0.0452394  
H325     H      0.159630000000     0.431860000000     0.388760000000     0.045196   
H326     H      0.078020000000     0.464100000000     0.368990000000     0.0445483  
H327     H      0.094690000000     0.511380000000     0.376230000000     0.0452277  
H328     H      0.176610000000     0.479620000000     0.395560000000     0.0455914  
H329     H      0.125360000000     0.301250000000     0.422980000000     0.0452134  
H330     H      0.105530000000     0.269140000000     0.341360000000     0.0445384  
H331     H      0.112740000000     0.221830000000     0.358020000000     0.0452342  
H332     H      0.132120000000     0.253450000000     0.439940000000     0.0456013  
H333     H      0.160990000000     0.601630000000     0.246310000000     0.0452614  
H334     H      0.079190000000     0.621650000000     0.278060000000     0.0456044  
H335     H      0.096160000000     0.614640000000     0.325810000000     0.0451962  
H336     H      0.177650000000     0.594170000000     0.293580000000     0.0445508  
H337     H      0.990940000000     0.612260000000     0.189910000000     0.0456231  
H338     H      0.022510000000     0.631500000000     0.107990000000     0.0452613  
H339     H      0.975180000000     0.638680000000     0.091310000000     0.044527   
H340     H      0.943120000000     0.619000000000     0.172940000000     0.0452146  
H341     H      0.142440000000     0.899700000000     0.035870000000     0.0452061  
H342     H      0.123450000000     0.817720000000     0.004190000000     0.045561   
H343     H      0.130230000000     0.834680000000     0.956410000000     0.0452067  
H344     H      0.149660000000     0.916360000000     0.988570000000     0.0445805  
H345     H      0.132740000000     0.729600000000     0.092440000000     0.0456043  
H346     H      0.113070000000     0.761430000000     0.174290000000     0.0452295  
H347     H      0.105640000000     0.714190000000     0.190950000000     0.0445617  
H348     H      0.125750000000     0.681860000000     0.109410000000     0.0452264  
H349     H      0.193020000000     0.898290000000     0.139040000000     0.0452277  
H350     H      0.225410000000     0.816770000000     0.118800000000     0.0445541  
H351     H      0.272650000000     0.833450000000     0.126220000000     0.0452368  
H352     H      0.240750000000     0.915280000000     0.146020000000     0.0456164  
H353     H      0.062390000000     0.864440000000     0.172740000000     0.0452292  
H354     H      0.030480000000     0.843940000000     0.091250000000     0.0445543  
H355     H      0.983120000000     0.851210000000     0.107890000000     0.0452944  
H356     H      0.014550000000     0.871280000000     0.189690000000     0.0456284  
H357     H      0.233180000000     0.333340000000     0.125970000000     0.0452267  
H358     H      0.264500000000     0.415140000000     0.146050000000     0.0456167  
H359     H      0.312360000000     0.398200000000     0.139160000000     0.0452395  
H360     H      0.280550000000     0.316710000000     0.118640000000     0.0445907  
H361     H      0.094570000000     0.472000000000     0.156350000000     0.0452472  
H362     H      0.176390000000     0.503280000000     0.136400000000     0.0456267  
H363     H      0.159450000000     0.551150000000     0.143250000000     0.0452175  
H364     H      0.077940000000     0.519380000000     0.163640000000     0.0445366  
H365     H      0.177600000000     0.388420000000     0.238520000000     0.0445436  
H366     H      0.095940000000     0.368900000000     0.206550000000     0.0452141  
H367     H      0.079020000000     0.362010000000     0.254350000000     0.0455939  
H368     H      0.160990000000     0.381090000000     0.285830000000     0.0452553  
H369     H      0.132540000000     0.229830000000     0.939780000000     0.0456065  
H370     H      0.113130000000     0.261290000000     0.857870000000     0.0452449  
H371     H      0.105730000000     0.213970000000     0.841250000000     0.0445455  
H372     H      0.125580000000     0.182020000000     0.922850000000     0.0452073  
H373     H      0.123210000000     0.317860000000     0.027890000000     0.0456644  
H374     H      0.142340000000     0.399820000000     0.996530000000     0.0451236  
H375     H      0.149660000000     0.416420000000     0.043870000000     0.0445863  
H376     H      0.130090000000     0.334760000000     0.075720000000     0.0451927  
H377     H      0.030340000000     0.344440000000     0.940880000000     0.044559   
H378     H      0.062400000000     0.364150000000     0.859260000000     0.0452066  
H379     H      0.014590000000     0.370910000000     0.842290000000     0.0455856  
H380     H      0.983010000000     0.351640000000     0.924210000000     0.0452391  
H381     H      0.193010000000     0.398510000000     0.893600000000     0.0451902  
H382     H      0.225270000000     0.316860000000     0.913180000000     0.044548   
H383     H      0.272540000000     0.333530000000     0.905930000000     0.0452194  
H384     H      0.240770000000     0.415480000000     0.886790000000     0.0455898  
In1      In     0.127810000000     0.329980000000     0.927750000000     2.43156    
In2      In     0.164380000000     0.403170000000     0.141190000000     2.4319     
In3      In     0.127950000000     0.829820000000     0.104390000000     2.43213    
In4      In     0.091110000000     0.616800000000     0.177850000000     2.43194    
In5      In     0.091120000000     0.366620000000     0.354510000000     2.43204    
In6      In     0.377950000000     0.329880000000     0.104410000000     2.4323     
In7      In     0.877710000000     0.653150000000     0.104440000000     2.43171    
In8      In     0.664470000000     0.079860000000     0.890930000000     2.43214    
In9      In     0.591040000000     0.116820000000     0.677780000000     2.43215    
In10     In     0.377610000000     0.153310000000     0.604550000000     2.4315     
In11     In     0.090980000000     0.866840000000     0.677770000000     2.43219    
In12     In     0.664330000000     0.903200000000     0.641110000000     2.4322     
In13     In     0.591050000000     0.866640000000     0.854420000000     2.43184    
In14     In     0.914410000000     0.866490000000     0.177700000000     2.43203    
In15     In     0.591110000000     0.616580000000     0.354420000000     2.43218    
In16     In     0.664360000000     0.403140000000     0.391140000000     2.43226    
In17     In     0.664530000000     0.579800000000     0.140950000000     2.43186    
In18     In     0.591080000000     0.366790000000     0.177760000000     2.43238    
In19     In     0.841020000000     0.903290000000     0.391160000000     2.43249    
In20     In     0.414410000000     0.866360000000     0.354440000000     2.43225    
In21     In     0.627850000000     0.829910000000     0.427690000000     2.43196    
In22     In     0.414400000000     0.366620000000     0.677860000000     2.43232    
In23     In     0.627890000000     0.329870000000     0.604410000000     2.43193    
In24     In     0.127660000000     0.653250000000     0.604460000000     2.43221    
In25     In     0.164560000000     0.579830000000     0.391000000000     2.43213    
In26     In     0.377610000000     0.653310000000     0.427870000000     2.43234    
In27     In     0.341160000000     0.580060000000     0.641140000000     2.43151    
In28     In     0.164300000000     0.903220000000     0.891140000000     2.4318     
In29     In     0.340990000000     0.403400000000     0.891320000000     2.43199    
In30     In     0.377810000000     0.830040000000     0.927790000000     2.4324     
In31     In     0.414430000000     0.616420000000     0.854520000000     2.43183    
In32     In     0.877520000000     0.153340000000     0.927760000000     2.43173    
In33     In     0.627570000000     0.653330000000     0.927860000000     2.43234    
In34     In     0.877900000000     0.829880000000     0.604300000000     2.43232    
In35     In     0.914380000000     0.616540000000     0.677670000000     2.43233    
In36     In     0.841120000000     0.580000000000     0.890990000000     2.43186    
In37     In     0.914420000000     0.366370000000     0.854350000000     2.43215    
In38     In     0.877850000000     0.329880000000     0.427730000000     2.4321     
In39     In     0.840980000000     0.403310000000     0.641200000000     2.43207    
In40     In     0.340980000000     0.903350000000     0.141300000000     2.43247    
In41     In     0.914490000000     0.116300000000     0.354360000000     2.43167    
In42     In     0.091070000000     0.116670000000     0.854450000000     2.43231    
In43     In     0.127560000000     0.153270000000     0.427840000000     2.43214    
In44     In     0.164450000000     0.079860000000     0.640990000000     2.43173    
In45     In     0.841160000000     0.079930000000     0.140990000000     2.43198    
In46     In     0.627660000000     0.153180000000     0.104430000000     2.43207    
In47     In     0.341160000000     0.079990000000     0.391130000000     2.43195    
In48     In     0.414420000000     0.116550000000     0.177820000000     2.43194    
N1       N      0.367640000000     0.103560000000     0.313320000000    -0.176195   
N2       N      0.386920000000     0.111730000000     0.258650000000    -0.175093   
N3       N      0.549890000000     0.129570000000     0.130950000000    -0.176116   
N4       N      0.495240000000     0.121370000000     0.150260000000    -0.175046   
N5       N      0.760270000000     0.107440000000     0.136120000000    -0.175041   
N6       N      0.705560000000     0.126730000000     0.127980000000    -0.176153   
N7       N      0.132610000000     0.125690000000     0.508590000000    -0.175114   
N8       N      0.140860000000     0.106360000000     0.563200000000    -0.176123   
N9       N      0.205530000000     0.126820000000     0.404320000000    -0.176193   
N10      N      0.260270000000     0.107520000000     0.396180000000    -0.175085   
N11      N      0.118620000000     0.111530000000     0.773620000000    -0.175012   
N12      N      0.137960000000     0.103380000000     0.718920000000    -0.176166   
N13      N      0.867690000000     0.103350000000     0.218870000000    -0.176211   
N14      N      0.887000000000     0.111370000000     0.273550000000    -0.175044   
N15      N      0.995240000000     0.121280000000     0.381970000000    -0.17506    
N16      N      0.049840000000     0.129590000000     0.401300000000    -0.176155   
N17      N      0.368500000000     0.984100000000     0.146330000000    -0.175055   
N18      N      0.387860000000     0.038730000000     0.154390000000    -0.176205   
N19      N      0.882950000000     0.249020000000     0.400190000000    -0.175043   
N20      N      0.891030000000     0.194290000000     0.380860000000    -0.176151   
N21      N      0.872730000000     0.357460000000     0.508570000000    -0.175112   
N22      N      0.864540000000     0.376810000000     0.563270000000    -0.176125   
N23      N      0.886830000000     0.371400000000     0.773590000000    -0.175212   
N24      N      0.867500000000     0.379690000000     0.718970000000    -0.176175   
N25      N      0.868640000000     0.499110000000     0.885920000000    -0.175069   
N26      N      0.887960000000     0.444360000000     0.877830000000    -0.176102   
N27      N      0.886870000000     0.611720000000     0.758510000000    -0.175049   
N28      N      0.867580000000     0.603570000000     0.813180000000    -0.176158   
N29      N      0.887840000000     0.538710000000     0.654230000000    -0.176291   
N30      N      0.868490000000     0.484070000000     0.646180000000    -0.175024   
N31      N      0.882930000000     0.749090000000     0.631800000000    -0.17504    
N32      N      0.890960000000     0.694420000000     0.651140000000    -0.176287   
N33      N      0.705520000000     0.626870000000     0.904280000000    -0.176172   
N34      N      0.760250000000     0.607560000000     0.896090000000    -0.175132   
N35      N      0.872620000000     0.125830000000     0.008540000000    -0.174964   
N36      N      0.864600000000     0.106490000000     0.063180000000    -0.176309   
N37      N      0.882470000000     0.234080000000     0.900190000000    -0.17501    
N38      N      0.890760000000     0.288670000000     0.880870000000    -0.176066   
N39      N      0.955500000000     0.129880000000     0.901280000000    -0.176127   
N40      N      0.010220000000     0.121800000000     0.881960000000    -0.175147   
N41      N      0.495200000000     0.621390000000     0.882080000000    -0.17509    
N42      N      0.549820000000     0.629680000000     0.901390000000    -0.176163   
N43      N      0.372720000000     0.857590000000     0.008650000000    -0.175005   
N44      N      0.364540000000     0.876900000000     0.063360000000    -0.176189   
N45      N      0.382900000000     0.749160000000     0.900300000000    -0.175169   
N46      N      0.390970000000     0.694420000000     0.880990000000    -0.176158   
N47      N      0.368550000000     0.484130000000     0.886370000000    -0.175033   
N48      N      0.387890000000     0.538710000000     0.878130000000    -0.176149   
N49      N      0.136780000000     0.984090000000     0.886260000000    -0.17498    
N50      N      0.117500000000     0.038800000000     0.878060000000    -0.17619    
N51      N      0.245190000000     0.875730000000     0.896050000000    -0.175048   
N52      N      0.299920000000     0.856470000000     0.904220000000    -0.176267   
N53      N      0.367650000000     0.603500000000     0.719020000000    -0.176209   
N54      N      0.386960000000     0.611500000000     0.773700000000    -0.175047   
N55      N      0.372710000000     0.625850000000     0.508660000000    -0.175068   
N56      N      0.364650000000     0.606560000000     0.563310000000    -0.176155   
N57      N      0.245280000000     0.607410000000     0.396040000000    -0.175151   
N58      N      0.299870000000     0.626750000000     0.404290000000    -0.176182   
N59      N      0.132800000000     0.625670000000     0.523620000000    -0.175105   
N60      N      0.141000000000     0.606330000000     0.468920000000    -0.176175   
N61      N      0.995210000000     0.621390000000     0.650170000000    -0.175096   
N62      N      0.049870000000     0.629610000000     0.630900000000    -0.176175   
N63      N      0.205550000000     0.626830000000     0.628050000000    -0.176313   
N64      N      0.260270000000     0.607560000000     0.636220000000    -0.175043   
N65      N      0.705650000000     0.356420000000     0.627970000000    -0.176178   
N66      N      0.760250000000     0.375750000000     0.636180000000    -0.175021   
N67      N      0.386840000000     0.371760000000     0.758690000000    -0.175049   
N68      N      0.367500000000     0.379910000000     0.813380000000    -0.176211   
N69      N      0.495240000000     0.361470000000     0.650300000000    -0.17511    
N70      N      0.549940000000     0.353360000000     0.630940000000    -0.176128   
N71      N      0.387970000000     0.444490000000     0.654260000000    -0.176085   
N72      N      0.368690000000     0.499190000000     0.646060000000    -0.175002   
N73      N      0.386820000000     0.871410000000     0.273690000000    -0.175161   
N74      N      0.367490000000     0.879700000000     0.219070000000    -0.176137   
N75      N      0.495240000000     0.861350000000     0.381900000000    -0.175066   
N76      N      0.549930000000     0.853320000000     0.401200000000    -0.176191   
N77      N      0.390790000000     0.788650000000     0.380970000000    -0.176175   
N78      N      0.382530000000     0.734050000000     0.400290000000    -0.175165   
N79      N      0.387970000000     0.944350000000     0.377960000000    -0.17615    
N80      N      0.368670000000     0.999090000000     0.386080000000    -0.174967   
N81      N      0.868590000000     0.984000000000     0.386180000000    -0.175059   
N82      N      0.887940000000     0.038590000000     0.377940000000    -0.176127   
N83      N      0.760270000000     0.875780000000     0.396110000000    -0.175163   
N84      N      0.705640000000     0.856450000000     0.404200000000    -0.176198   
N85      N      0.864610000000     0.876770000000     0.468940000000    -0.176172   
N86      N      0.872850000000     0.857440000000     0.523560000000    -0.175204   
N87      N      0.614530000000     0.288790000000     0.151280000000    -0.176124   
N88      N      0.622590000000     0.234060000000     0.131950000000    -0.175095   
N89      N      0.636960000000     0.499080000000     0.145910000000    -0.175117   
N90      N      0.617630000000     0.444500000000     0.154160000000    -0.176137   
N91      N      0.640930000000     0.606370000000     0.063190000000    -0.17612    
N92      N      0.632660000000     0.625730000000     0.008590000000    -0.175048   
N93      N      0.745240000000     0.375620000000     0.396040000000    -0.175166   
N94      N      0.799960000000     0.356330000000     0.404170000000    -0.176246   
N95      N      0.640880000000     0.376650000000     0.468970000000    -0.176208   
N96      N      0.632810000000     0.357350000000     0.523620000000    -0.175015   
N97      N      0.637860000000     0.379710000000     0.313260000000    -0.176166   
N98      N      0.618550000000     0.371710000000     0.258580000000    -0.175143   
N99      N      0.510280000000     0.621720000000     0.381980000000    -0.175116   
N100     N      0.455570000000     0.629830000000     0.401340000000    -0.176188   
N101     N      0.618670000000     0.611450000000     0.273590000000    -0.175087   
N102     N      0.638020000000     0.603300000000     0.218890000000    -0.176136   
N103     N      0.636830000000     0.484010000000     0.386230000000    -0.175085   
N104     N      0.617550000000     0.538710000000     0.378020000000    -0.176218   
N105     N      0.614740000000     0.694390000000     0.380870000000    -0.176122   
N106     N      0.622980000000     0.749070000000     0.400150000000    -0.175189   
N107     N      0.886850000000     0.871620000000     0.258530000000    -0.175073   
N108     N      0.867510000000     0.879770000000     0.313220000000    -0.176075   
N109     N      0.887960000000     0.944350000000     0.154070000000    -0.176164   
N110     N      0.868690000000     0.999060000000     0.145870000000    -0.174973   
N111     N      0.510240000000     0.861830000000     0.881980000000    -0.175173   
N112     N      0.455580000000     0.853650000000     0.901280000000    -0.176197   
N113     N      0.614480000000     0.788760000000     0.880980000000    -0.176204   
N114     N      0.622520000000     0.734110000000     0.900330000000    -0.175047   
N115     N      0.745210000000     0.875650000000     0.636030000000    -0.175104   
N116     N      0.799940000000     0.856340000000     0.627850000000    -0.1761     
N117     N      0.640810000000     0.876720000000     0.563250000000    -0.17623    
N118     N      0.632700000000     0.857420000000     0.508550000000    -0.175031   
N119     N      0.637850000000     0.879630000000     0.718920000000    -0.176162   
N120     N      0.618560000000     0.871460000000     0.773590000000    -0.175153   
N121     N      0.010230000000     0.861860000000     0.650170000000    -0.175184   
N122     N      0.955620000000     0.853550000000     0.630840000000    -0.176193   
N123     N      0.118460000000     0.871780000000     0.758590000000    -0.175101   
N124     N      0.137780000000     0.879790000000     0.813260000000    -0.176138   
N125     N      0.114450000000     0.788850000000     0.651300000000    -0.176228   
N126     N      0.122530000000     0.734120000000     0.631980000000    -0.175072   
N127     N      0.117530000000     0.944560000000     0.654190000000    -0.176084   
N128     N      0.136880000000     0.999140000000     0.645950000000    -0.175054   
N129     N      0.372770000000     0.125790000000     0.523690000000    -0.175101   
N130     N      0.364670000000     0.106490000000     0.468990000000    -0.176144   
N131     N      0.382490000000     0.234150000000     0.632100000000    -0.175081   
N132     N      0.390750000000     0.288810000000     0.651390000000    -0.176112   
N133     N      0.299810000000     0.126750000000     0.628000000000    -0.176155   
N134     N      0.245190000000     0.107390000000     0.636050000000    -0.175148   
N135     N      0.510220000000     0.121850000000     0.650330000000    -0.175114   
N136     N      0.455530000000     0.129890000000     0.631030000000    -0.176173   
N137     N      0.636810000000     0.984090000000     0.646160000000    -0.175054   
N138     N      0.617500000000     0.038830000000     0.654270000000    -0.176075   
N139     N      0.614690000000     0.194530000000     0.651270000000    -0.176192   
N140     N      0.622960000000     0.249130000000     0.631960000000    -0.175099   
N141     N      0.745180000000     0.107440000000     0.895960000000    -0.17509    
N142     N      0.799780000000     0.126790000000     0.904180000000    -0.176164   
N143     N      0.636950000000     0.999110000000     0.885910000000    -0.175053   
N144     N      0.617610000000     0.944470000000     0.877850000000    -0.176164   
N145     N      0.637960000000     0.103500000000     0.813160000000    -0.176076   
N146     N      0.618630000000     0.111780000000     0.758540000000    -0.175196   
N147     N      0.640910000000     0.106320000000     0.968870000000    -0.176131   
N148     N      0.632740000000     0.125630000000     0.023580000000    -0.175061   
N149     N      0.872850000000     0.625680000000     0.023560000000    -0.175114   
N150     N      0.864700000000     0.606420000000     0.968860000000    -0.176117   
N151     N      0.882570000000     0.734000000000     0.131960000000    -0.175076   
N152     N      0.890790000000     0.788680000000     0.151240000000    -0.176167   
N153     N      0.799920000000     0.626610000000     0.127910000000    -0.176239   
N154     N      0.745290000000     0.607290000000     0.136000000000    -0.17501    
N155     N      0.382990000000     0.249100000000     0.131930000000    -0.175037   
N156     N      0.391020000000     0.194440000000     0.151280000000    -0.17622    
N157     N      0.364590000000     0.376850000000     0.969090000000    -0.176144   
N158     N      0.372860000000     0.357480000000     0.023690000000    -0.175207   
N159     N      0.455700000000     0.353530000000     0.130900000000    -0.176202   
N160     N      0.510320000000     0.361820000000     0.150200000000    -0.17507    
N161     N      0.010290000000     0.361760000000     0.382020000000    -0.175034   
N162     N      0.955630000000     0.353520000000     0.401290000000    -0.176212   
N163     N      0.117680000000     0.444450000000     0.377960000000    -0.17616    
N164     N      0.137030000000     0.499080000000     0.386000000000    -0.175005   
N165     N      0.114530000000     0.288730000000     0.381030000000    -0.176161   
N166     N      0.122540000000     0.234060000000     0.400360000000    -0.175047   
N167     N      0.118710000000     0.611760000000     0.258610000000    -0.174993   
N168     N      0.138040000000     0.603470000000     0.313220000000    -0.176178   
N169     N      0.010300000000     0.621780000000     0.150340000000    -0.175023   
N170     N      0.955620000000     0.629750000000     0.130980000000    -0.176229   
N171     N      0.132840000000     0.857330000000     0.023610000000    -0.175247   
N172     N      0.140860000000     0.876660000000     0.968960000000    -0.176099   
N173     N      0.123030000000     0.749090000000     0.131980000000    -0.17502    
N174     N      0.114750000000     0.694500000000     0.151310000000    -0.17617    
N175     N      0.205690000000     0.856390000000     0.127990000000    -0.176097   
N176     N      0.260270000000     0.875750000000     0.136240000000    -0.175088   
N177     N      0.049970000000     0.853270000000     0.130860000000    -0.176106   
N178     N      0.995250000000     0.861360000000     0.150180000000    -0.175046   
N179     N      0.245260000000     0.375620000000     0.136130000000    -0.175034   
N180     N      0.299990000000     0.356320000000     0.127970000000    -0.176184   
N181     N      0.136860000000     0.484060000000     0.146270000000    -0.175062   
N182     N      0.117560000000     0.538800000000     0.154370000000    -0.176184   
N183     N      0.137900000000     0.379590000000     0.219000000000    -0.176151   
N184     N      0.118620000000     0.371450000000     0.273670000000    -0.174997   
N185     N      0.122950000000     0.249140000000     0.900210000000    -0.175047   
N186     N      0.114710000000     0.194470000000     0.880920000000    -0.176131   
N187     N      0.132670000000     0.357460000000     0.008620000000    -0.175099   
N188     N      0.140810000000     0.376720000000     0.063330000000    -0.176167   
N189     N      0.049910000000     0.353380000000     0.901210000000    -0.176169   
N190     N      0.995220000000     0.361380000000     0.881860000000    -0.175108   
N191     N      0.205610000000     0.356550000000     0.904310000000    -0.17614    
N192     N      0.260230000000     0.375890000000     0.896250000000    -0.175035   
O1       O      0.122410000000     0.297160000000     0.893670000000    -0.50864    
O2       O      0.129780000000     0.282330000000     0.935310000000    -0.483919   
O3       O      0.157330000000     0.362460000000     0.907680000000    -0.488149   
O4       O      0.098190000000     0.350080000000     0.895300000000    -0.488129   
O5       O      0.125940000000     0.322370000000     0.975390000000    -0.48396    
O6       O      0.080990000000     0.336430000000     0.934280000000    -0.512879   
O7       O      0.174640000000     0.323460000000     0.921270000000    -0.512617   
O8       O      0.133160000000     0.364030000000     0.960610000000    -0.508618   
O9       O      0.197240000000     0.369120000000     0.135450000000    -0.50873    
O10      O      0.212010000000     0.410710000000     0.143180000000    -0.484027   
O11      O      0.144250000000     0.370740000000     0.111570000000    -0.488066   
O12      O      0.131940000000     0.383050000000     0.170760000000    -0.488066   
O13      O      0.171940000000     0.450800000000     0.139260000000    -0.484026   
O14      O      0.170930000000     0.396630000000     0.187960000000    -0.512821   
O15      O      0.157850000000     0.409730000000     0.094430000000    -0.512901   
O16      O      0.130340000000     0.436050000000     0.146920000000    -0.508699   
O17      O      0.122460000000     0.797140000000     0.138470000000    -0.508889   
O18      O      0.129960000000     0.782130000000     0.096850000000    -0.483938   
O19      O      0.098250000000     0.850100000000     0.136770000000    -0.488024   
O20      O      0.174780000000     0.823340000000     0.110760000000    -0.512689   
O21      O      0.126180000000     0.822210000000     0.056710000000    -0.484154   
O22      O      0.157400000000     0.862260000000     0.124660000000    -0.488214   
O23      O      0.081130000000     0.836100000000     0.097850000000    -0.5128     
O24      O      0.133320000000     0.863870000000     0.071640000000    -0.508965   
O25      O      0.125190000000     0.611140000000     0.210570000000    -0.508625   
O26      O      0.083590000000     0.618830000000     0.225530000000    -0.484006   
O27      O      0.111370000000     0.646240000000     0.145420000000    -0.488388   
O28      O      0.123490000000     0.587060000000     0.157590000000    -0.488068   
O29      O      0.043440000000     0.615030000000     0.185450000000    -0.484035   
O30      O      0.084570000000     0.570000000000     0.171530000000    -0.512898   
O31      O      0.097520000000     0.663600000000     0.184340000000    -0.513044   
O32      O      0.058340000000     0.622300000000     0.143800000000    -0.508757   
O33      O      0.058320000000     0.361260000000     0.388580000000    -0.508663   
O34      O      0.043470000000     0.368560000000     0.346930000000    -0.484061   
O35      O      0.123580000000     0.396160000000     0.374630000000    -0.488263   
O36      O      0.111240000000     0.337020000000     0.386950000000    -0.488268   
O37      O      0.083520000000     0.364750000000     0.306860000000    -0.483931   
O38      O      0.097550000000     0.319790000000     0.347970000000    -0.512858   
O39      O      0.084600000000     0.413450000000     0.360960000000    -0.512817   
O40      O      0.125190000000     0.371930000000     0.321700000000    -0.508559   
O41      O      0.383530000000     0.297140000000     0.138460000000    -0.508767   
O42      O      0.376160000000     0.282200000000     0.096820000000    -0.484006   
O43      O      0.348250000000     0.362240000000     0.124740000000    -0.488152   
O44      O      0.407440000000     0.350190000000     0.136820000000    -0.487984   
O45      O      0.379930000000     0.322360000000     0.056730000000    -0.484303   
O46      O      0.424750000000     0.336250000000     0.097900000000    -0.512793   
O47      O      0.331160000000     0.323340000000     0.110730000000    -0.512877   
O48      O      0.372260000000     0.363950000000     0.071730000000    -0.509052   
O49      O      0.875740000000     0.700800000000     0.096870000000    -0.483846   
O50      O      0.883120000000     0.685980000000     0.138510000000    -0.508609   
O51      O      0.907330000000     0.633060000000     0.136890000000    -0.488164   
O52      O      0.848200000000     0.620680000000     0.124520000000    -0.488139   
O53      O      0.872350000000     0.619100000000     0.071580000000    -0.50857    
O54      O      0.830890000000     0.659680000000     0.110930000000    -0.512774   
O55      O      0.924540000000     0.646700000000     0.097910000000    -0.512542   
O56      O      0.879590000000     0.660760000000     0.056800000000    -0.483882   
O57      O      0.697130000000     0.113930000000     0.896540000000    -0.508934   
O58      O      0.712160000000     0.072320000000     0.888970000000    -0.484274   
O59      O      0.644120000000     0.112230000000     0.920610000000    -0.488121   
O60      O      0.632060000000     0.100190000000     0.861430000000    -0.488095   
O61      O      0.672060000000     0.032170000000     0.892730000000    -0.484242   
O62      O      0.670970000000     0.086190000000     0.844120000000    -0.512707   
O63      O      0.658180000000     0.073330000000     0.937730000000    -0.512911   
O64      O      0.630420000000     0.047150000000     0.885390000000    -0.508746   
O65      O      0.625110000000     0.111160000000     0.710500000000    -0.508848   
O66      O      0.583520000000     0.118850000000     0.725460000000    -0.483993   
O67      O      0.611280000000     0.146270000000     0.645350000000    -0.488293   
O68      O      0.623430000000     0.087090000000     0.657520000000    -0.488059   
O69      O      0.543380000000     0.115050000000     0.685410000000    -0.484135   
O70      O      0.584490000000     0.070030000000     0.671420000000    -0.512829   
O71      O      0.597480000000     0.163620000000     0.684300000000    -0.512741   
O72      O      0.558250000000     0.122370000000     0.643760000000    -0.508831   
O73      O      0.379470000000     0.160900000000     0.556900000000    -0.483811   
O74      O      0.372260000000     0.119240000000     0.571700000000    -0.508565   
O75      O      0.348100000000     0.120850000000     0.624650000000    -0.488212   
O76      O      0.424430000000     0.146870000000     0.597990000000    -0.51266    
O77      O      0.375640000000     0.200960000000     0.597000000000    -0.484002   
O78      O      0.407250000000     0.133200000000     0.636970000000    -0.48828    
O79      O      0.330780000000     0.159830000000     0.611020000000    -0.512636   
O80      O      0.383030000000     0.186130000000     0.638630000000    -0.50871    
O81      O      0.058270000000     0.861290000000     0.643690000000    -0.508976   
O82      O      0.043300000000     0.868860000000     0.685290000000    -0.484222   
O83      O      0.111230000000     0.837120000000     0.645390000000    -0.488335   
O84      O      0.123430000000     0.896280000000     0.657550000000    -0.488051   
O85      O      0.083360000000     0.865080000000     0.725440000000    -0.484103   
O86      O      0.084480000000     0.913660000000     0.671370000000    -0.512559   
O87      O      0.097310000000     0.820030000000     0.684310000000    -0.512819   
O88      O      0.125020000000     0.872260000000     0.710560000000    -0.508837   
O89      O      0.630290000000     0.936080000000     0.646800000000    -0.508921   
O90      O      0.671890000000     0.950830000000     0.639190000000    -0.484163   
O91      O      0.631890000000     0.883090000000     0.670680000000    -0.48821    
O92      O      0.644220000000     0.870770000000     0.611490000000    -0.48821    
O93      O      0.711970000000     0.910740000000     0.643080000000    -0.483932   
O94      O      0.657830000000     0.909750000000     0.594340000000    -0.512822   
O95      O      0.670880000000     0.896680000000     0.687880000000    -0.512715   
O96      O      0.697190000000     0.869150000000     0.635380000000    -0.508708   
O97      O      0.558260000000     0.861320000000     0.888510000000    -0.508676   
O98      O      0.543400000000     0.868570000000     0.846860000000    -0.48415    
O99      O      0.623510000000     0.896180000000     0.874540000000    -0.488208   
O100     O      0.611190000000     0.837050000000     0.886870000000    -0.488091   
O101     O      0.583460000000     0.864760000000     0.806770000000    -0.484046   
O102     O      0.597460000000     0.819800000000     0.847910000000    -0.512658   
O103     O      0.584540000000     0.913480000000     0.860840000000    -0.51271    
O104     O      0.625120000000     0.871950000000     0.821610000000    -0.508725   
O105     O      0.880360000000     0.872300000000     0.210500000000    -0.508789   
O106     O      0.921940000000     0.864530000000     0.225350000000    -0.484232   
O107     O      0.894200000000     0.836910000000     0.145280000000    -0.487994   
O108     O      0.882000000000     0.896120000000     0.157480000000    -0.487893   
O109     O      0.962060000000     0.868410000000     0.185260000000    -0.484147   
O110     O      0.920960000000     0.913250000000     0.171240000000    -0.512722   
O111     O      0.907950000000     0.819730000000     0.184240000000    -0.512903   
O112     O      0.947230000000     0.860700000000     0.143670000000    -0.508879   
O113     O      0.625160000000     0.610780000000     0.321620000000    -0.508662   
O114     O      0.583570000000     0.618530000000     0.306760000000    -0.483904   
O115     O      0.623500000000     0.586950000000     0.374640000000    -0.488304   
O116     O      0.611330000000     0.646160000000     0.386820000000    -0.488216   
O117     O      0.543450000000     0.614680000000     0.346880000000    -0.484071   
O118     O      0.597560000000     0.663340000000     0.347870000000    -0.512865   
O119     O      0.584560000000     0.569820000000     0.360850000000    -0.51282    
O120     O      0.558300000000     0.622360000000     0.388470000000    -0.508783   
O121     O      0.697230000000     0.369080000000     0.396590000000    -0.508789   
O122     O      0.711990000000     0.410710000000     0.389240000000    -0.484254   
O123     O      0.631920000000     0.383070000000     0.361540000000    -0.488289   
O124     O      0.644280000000     0.370690000000     0.420700000000    -0.488127   
O125     O      0.671920000000     0.450780000000     0.393110000000    -0.484028   
O126     O      0.657850000000     0.409690000000     0.437950000000    -0.51285    
O127     O      0.670920000000     0.396650000000     0.344340000000    -0.512794   
O128     O      0.630300000000     0.436000000000     0.385660000000    -0.508854   
O129     O      0.630450000000     0.547130000000     0.146450000000    -0.508677   
O130     O      0.672080000000     0.532110000000     0.139000000000    -0.484138   
O131     O      0.658180000000     0.573320000000     0.094130000000    -0.51273    
O132     O      0.632130000000     0.600110000000     0.170620000000    -0.48796    
O133     O      0.712210000000     0.572180000000     0.142740000000    -0.484013   
O134     O      0.671040000000     0.586080000000     0.187780000000    -0.512615   
O135     O      0.644230000000     0.612240000000     0.111470000000    -0.488044   
O136     O      0.697240000000     0.613850000000     0.135530000000    -0.508726   
O137     O      0.625120000000     0.372210000000     0.210550000000    -0.508821   
O138     O      0.583460000000     0.365010000000     0.225420000000    -0.484197   
O139     O      0.623530000000     0.396220000000     0.157540000000    -0.488268   
O140     O      0.611310000000     0.337060000000     0.145360000000    -0.488103   
O141     O      0.543410000000     0.368830000000     0.185300000000    -0.484115   
O142     O      0.597420000000     0.319980000000     0.184300000000    -0.512821   
O143     O      0.584580000000     0.413600000000     0.171340000000    -0.5128     
O144     O      0.558360000000     0.361220000000     0.143690000000    -0.508826   
O145     O      0.808310000000     0.869240000000     0.396600000000    -0.508932   
O146     O      0.793340000000     0.910890000000     0.389360000000    -0.484336   
O147     O      0.861330000000     0.870880000000     0.420670000000    -0.488266   
O148     O      0.834500000000     0.897000000000     0.344340000000    -0.512719   
O149     O      0.833470000000     0.950980000000     0.393110000000    -0.48413    
O150     O      0.873410000000     0.882960000000     0.361500000000    -0.488016   
O151     O      0.847340000000     0.909790000000     0.437980000000    -0.512973   
O152     O      0.875090000000     0.935950000000     0.385640000000    -0.509078   
O153     O      0.380340000000     0.872030000000     0.321730000000    -0.508914   
O154     O      0.421930000000     0.864330000000     0.306770000000    -0.484136   
O155     O      0.382030000000     0.896090000000     0.374710000000    -0.487951   
O156     O      0.394180000000     0.836910000000     0.386880000000    -0.488325   
O157     O      0.462070000000     0.868130000000     0.346810000000    -0.483941   
O158     O      0.407980000000     0.819560000000     0.347930000000    -0.512767   
O159     O      0.420970000000     0.913150000000     0.360800000000    -0.512639   
O160     O      0.447210000000     0.860830000000     0.388470000000    -0.508559   
O161     O      0.622420000000     0.797080000000     0.393620000000    -0.508718   
O162     O      0.629830000000     0.782260000000     0.435250000000    -0.483929   
O163     O      0.657360000000     0.862370000000     0.407580000000    -0.48808    
O164     O      0.598210000000     0.850010000000     0.395260000000    -0.488241   
O165     O      0.625980000000     0.822320000000     0.475330000000    -0.484064   
O166     O      0.581030000000     0.836350000000     0.434240000000    -0.512924   
O167     O      0.674670000000     0.823380000000     0.421200000000    -0.512685   
O168     O      0.633220000000     0.863970000000     0.460530000000    -0.5088     
O169     O      0.447210000000     0.360850000000     0.643810000000    -0.508856   
O170     O      0.462060000000     0.368500000000     0.685400000000    -0.484115   
O171     O      0.382010000000     0.396250000000     0.657640000000    -0.488107   
O172     O      0.394180000000     0.337050000000     0.645450000000    -0.488142   
O173     O      0.421940000000     0.364660000000     0.725510000000    -0.484154   
O174     O      0.407940000000     0.319850000000     0.684400000000    -0.512532   
O175     O      0.420960000000     0.413380000000     0.671440000000    -0.51271    
O176     O      0.380360000000     0.372420000000     0.710660000000    -0.509042   
O177     O      0.633280000000     0.363920000000     0.571660000000    -0.508556   
O178     O      0.626100000000     0.322250000000     0.556740000000    -0.484108   
O179     O      0.657370000000     0.362310000000     0.624650000000    -0.488198   
O180     O      0.598220000000     0.350140000000     0.636830000000    -0.488036   
O181     O      0.629870000000     0.282190000000     0.596850000000    -0.484132   
O182     O      0.581070000000     0.336210000000     0.597900000000    -0.512738   
O183     O      0.674720000000     0.323370000000     0.610780000000    -0.51261    
O184     O      0.622420000000     0.297170000000     0.638480000000    -0.508918   
O185     O      0.133460000000     0.619190000000     0.571640000000    -0.50877    
O186     O      0.125680000000     0.660770000000     0.556810000000    -0.483986   
O187     O      0.098110000000     0.633080000000     0.636880000000    -0.488011   
O188     O      0.157320000000     0.620860000000     0.624650000000    -0.4883     
O189     O      0.121910000000     0.686100000000     0.638490000000    -0.50884    
O190     O      0.174420000000     0.659820000000     0.610940000000    -0.512829   
O191     O      0.080900000000     0.646740000000     0.597900000000    -0.512823   
O192     O      0.129540000000     0.700890000000     0.596890000000    -0.484024   
O193     O      0.197230000000     0.613900000000     0.396600000000    -0.508883   
O194     O      0.212250000000     0.572290000000     0.389050000000    -0.484286   
O195     O      0.144210000000     0.612220000000     0.420660000000    -0.488075   
O196     O      0.132150000000     0.600160000000     0.361490000000    -0.488125   
O197     O      0.172150000000     0.532150000000     0.392800000000    -0.484215   
O198     O      0.171050000000     0.586160000000     0.344180000000    -0.512638   
O199     O      0.158270000000     0.573330000000     0.437800000000    -0.51301    
O200     O      0.130500000000     0.547130000000     0.385480000000    -0.508696   
O201     O      0.383090000000     0.686010000000     0.393790000000    -0.508906   
O202     O      0.375630000000     0.701000000000     0.435410000000    -0.48414    
O203     O      0.348150000000     0.620870000000     0.407620000000    -0.488398   
O204     O      0.407290000000     0.633040000000     0.395460000000    -0.488171   
O205     O      0.379400000000     0.660950000000     0.475540000000    -0.484045   
O206     O      0.424440000000     0.647000000000     0.434370000000    -0.512824   
O207     O      0.330790000000     0.659800000000     0.421490000000    -0.513032   
O208     O      0.372240000000     0.619280000000     0.460620000000    -0.509042   
O209     O      0.308280000000     0.614120000000     0.635680000000    -0.50852    
O210     O      0.293530000000     0.572480000000     0.643040000000    -0.484085   
O211     O      0.361230000000     0.612510000000     0.611580000000    -0.488164   
O212     O      0.373600000000     0.600140000000     0.670750000000    -0.488239   
O213     O      0.375230000000     0.547200000000     0.646630000000    -0.508488   
O214     O      0.334600000000     0.586560000000     0.687940000000    -0.512788   
O215     O      0.347690000000     0.573500000000     0.594330000000    -0.512642   
O216     O      0.333600000000     0.532420000000     0.639180000000    -0.483909   
O217     O      0.197180000000     0.869160000000     0.896570000000    -0.508364   
O218     O      0.211930000000     0.910810000000     0.889240000000    -0.48401    
O219     O      0.131840000000     0.883160000000     0.861540000000    -0.488085   
O220     O      0.144260000000     0.870740000000     0.920680000000    -0.488169   
O221     O      0.171870000000     0.950850000000     0.893110000000    -0.483904   
O222     O      0.157780000000     0.909750000000     0.937950000000    -0.512704   
O223     O      0.170850000000     0.896720000000     0.844330000000    -0.512524   
O224     O      0.130230000000     0.936080000000     0.885700000000    -0.50862    
O225     O      0.308280000000     0.369350000000     0.896740000000    -0.508864   
O226     O      0.293300000000     0.411010000000     0.889520000000    -0.48396    
O227     O      0.347320000000     0.409880000000     0.938150000000    -0.512747   
O228     O      0.373380000000     0.383090000000     0.861660000000    -0.48815    
O229     O      0.333430000000     0.451100000000     0.893280000000    -0.484006   
O230     O      0.334480000000     0.397130000000     0.844500000000    -0.512797   
O231     O      0.361300000000     0.370980000000     0.920810000000    -0.488376   
O232     O      0.375060000000     0.436080000000     0.885830000000    -0.508869   
O233     O      0.372030000000     0.864080000000     0.960620000000    -0.5089     
O234     O      0.379820000000     0.822500000000     0.975440000000    -0.483858   
O235     O      0.348150000000     0.862440000000     0.907630000000    -0.488316   
O236     O      0.407340000000     0.850190000000     0.895350000000    -0.488258   
O237     O      0.375920000000     0.782400000000     0.935370000000    -0.484228   
O238     O      0.424580000000     0.836550000000     0.934320000000    -0.512822   
O239     O      0.331050000000     0.823470000000     0.921320000000    -0.512886   
O240     O      0.383540000000     0.797170000000     0.893770000000    -0.508897   
O241     O      0.447160000000     0.622000000000     0.888590000000    -0.508648   
O242     O      0.462110000000     0.614380000000     0.846980000000    -0.48391    
O243     O      0.381980000000     0.586990000000     0.874750000000    -0.488165   
O244     O      0.394190000000     0.646150000000     0.886910000000    -0.488234   
O245     O      0.422060000000     0.618200000000     0.806860000000    -0.484018   
O246     O      0.408090000000     0.663230000000     0.847980000000    -0.512823   
O247     O      0.420930000000     0.569610000000     0.860950000000    -0.512774   
O248     O      0.380390000000     0.610990000000     0.821730000000    -0.50858    
O249     O      0.872140000000     0.119280000000     0.960500000000    -0.50867    
O250     O      0.879300000000     0.160950000000     0.975440000000    -0.483955   
O251     O      0.907220000000     0.133070000000     0.895370000000    -0.48804    
O252     O      0.848060000000     0.120910000000     0.907490000000    -0.488313   
O253     O      0.875530000000     0.201030000000     0.935310000000    -0.483846   
O254     O      0.830690000000     0.159830000000     0.921400000000    -0.51287    
O255     O      0.924340000000     0.147050000000     0.934290000000    -0.512881   
O256     O      0.883020000000     0.186030000000     0.893680000000    -0.508582   
O257     O      0.621990000000     0.686060000000     0.893810000000    -0.508827   
O258     O      0.629360000000     0.701010000000     0.935440000000    -0.484199   
O259     O      0.598070000000     0.633020000000     0.895460000000    -0.488104   
O260     O      0.657260000000     0.620960000000     0.907530000000    -0.488165   
O261     O      0.625600000000     0.660850000000     0.975540000000    -0.484253   
O262     O      0.674360000000     0.659860000000     0.921530000000    -0.512867   
O263     O      0.580770000000     0.646970000000     0.934380000000    -0.512817   
O264     O      0.633250000000     0.619250000000     0.960540000000    -0.508799   
O265     O      0.872220000000     0.863930000000     0.571600000000    -0.509156   
O266     O      0.879900000000     0.822340000000     0.556620000000    -0.484335   
O267     O      0.907360000000     0.850170000000     0.636730000000    -0.488226   
O268     O      0.848190000000     0.862260000000     0.624610000000    -0.487941   
O269     O      0.876110000000     0.782200000000     0.596700000000    -0.484117   
O270     O      0.831100000000     0.823340000000     0.610620000000    -0.51262    
O271     O      0.924690000000     0.836270000000     0.597810000000    -0.512928   
O272     O      0.883460000000     0.797130000000     0.638340000000    -0.508775   
O273     O      0.880310000000     0.611220000000     0.710490000000    -0.508684   
O274     O      0.921970000000     0.618430000000     0.725320000000    -0.484007   
O275     O      0.881930000000     0.587000000000     0.657550000000    -0.488326   
O276     O      0.894250000000     0.646130000000     0.645230000000    -0.488325   
O277     O      0.962030000000     0.614610000000     0.685260000000    -0.484111   
O278     O      0.907950000000     0.663370000000     0.684200000000    -0.512862   
O279     O      0.920900000000     0.569710000000     0.671240000000    -0.512955   
O280     O      0.947190000000     0.621890000000     0.643610000000    -0.508821   
O281     O      0.875160000000     0.547120000000     0.885270000000    -0.508691   
O282     O      0.833560000000     0.532360000000     0.892910000000    -0.484054   
O283     O      0.861250000000     0.612410000000     0.920620000000    -0.488176   
O284     O      0.873550000000     0.600120000000     0.861420000000    -0.488149   
O285     O      0.793480000000     0.572470000000     0.889020000000    -0.484174   
O286     O      0.834560000000     0.586520000000     0.844220000000    -0.512764   
O287     O      0.847640000000     0.573420000000     0.937750000000    -0.512753   
O288     O      0.808260000000     0.614050000000     0.896740000000    -0.508856   
O289     O      0.880350000000     0.372020000000     0.821630000000    -0.508885   
O290     O      0.921940000000     0.364340000000     0.806670000000    -0.48404    
O291     O      0.882030000000     0.396100000000     0.874610000000    -0.487842   
O292     O      0.894160000000     0.336930000000     0.886780000000    -0.488212   
O293     O      0.962080000000     0.368140000000     0.846750000000    -0.484186   
O294     O      0.908000000000     0.319570000000     0.847840000000    -0.512692   
O295     O      0.920960000000     0.413170000000     0.860670000000    -0.512738   
O296     O      0.947190000000     0.360860000000     0.888400000000    -0.508777   
O297     O      0.883580000000     0.297040000000     0.393690000000    -0.508924   
O298     O      0.875970000000     0.282240000000     0.435290000000    -0.484174   
O299     O      0.907400000000     0.350060000000     0.395320000000    -0.488136   
O300     O      0.848200000000     0.362280000000     0.407560000000    -0.488263   
O301     O      0.879830000000     0.322360000000     0.475390000000    -0.48386    
O302     O      0.831080000000     0.323330000000     0.421280000000    -0.512812   
O303     O      0.924620000000     0.336380000000     0.434290000000    -0.512661   
O304     O      0.872070000000     0.363940000000     0.460550000000    -0.508673   
O305     O      0.875030000000     0.436020000000     0.646720000000    -0.508672   
O306     O      0.833380000000     0.451000000000     0.639380000000    -0.483959   
O307     O      0.861310000000     0.370920000000     0.611540000000    -0.488045   
O308     O      0.873390000000     0.382990000000     0.670700000000    -0.488326   
O309     O      0.808300000000     0.369250000000     0.635600000000    -0.508879   
O310     O      0.834490000000     0.396980000000     0.688010000000    -0.512885   
O311     O      0.847270000000     0.409820000000     0.594390000000    -0.512638   
O312     O      0.793290000000     0.410870000000     0.643160000000    -0.484006   
O313     O      0.308320000000     0.869270000000     0.135680000000    -0.508842   
O314     O      0.293290000000     0.910880000000     0.143250000000    -0.484153   
O315     O      0.373380000000     0.883000000000     0.170800000000    -0.488185   
O316     O      0.361330000000     0.870980000000     0.111620000000    -0.487977   
O317     O      0.333390000000     0.951030000000     0.139510000000    -0.484257   
O318     O      0.347260000000     0.909880000000     0.094500000000    -0.51278    
O319     O      0.334480000000     0.897010000000     0.188110000000    -0.512758   
O320     O      0.375030000000     0.936050000000     0.146830000000    -0.509029   
O321     O      0.947200000000     0.121840000000     0.388450000000    -0.508763   
O322     O      0.962170000000     0.114290000000     0.346840000000    -0.484025   
O323     O      0.882040000000     0.086860000000     0.374590000000    -0.488153   
O324     O      0.908160000000     0.163120000000     0.347840000000    -0.512778   
O325     O      0.922110000000     0.118070000000     0.306700000000    -0.484034   
O326     O      0.894240000000     0.146020000000     0.386760000000    -0.487982   
O327     O      0.920980000000     0.069480000000     0.360760000000    -0.512822   
O328     O      0.880440000000     0.110890000000     0.321580000000    -0.508736   
O329     O      0.125110000000     0.110850000000     0.821650000000    -0.508903   
O330     O      0.083530000000     0.118630000000     0.806790000000    -0.484061   
O331     O      0.123460000000     0.087030000000     0.874660000000    -0.48839    
O332     O      0.097540000000     0.163430000000     0.847910000000    -0.512771   
O333     O      0.043420000000     0.114760000000     0.846880000000    -0.484053   
O334     O      0.111270000000     0.146230000000     0.886870000000    -0.488273   
O335     O      0.084510000000     0.069910000000     0.860900000000    -0.512922   
O336     O      0.058240000000     0.122450000000     0.888480000000    -0.508762   
O337     O      0.122000000000     0.186020000000     0.393810000000    -0.508867   
O338     O      0.129350000000     0.200940000000     0.435460000000    -0.484016   
O339     O      0.080770000000     0.146860000000     0.434330000000    -0.512997   
O340     O      0.157280000000     0.120890000000     0.407550000000    -0.488027   
O341     O      0.125540000000     0.160800000000     0.475530000000    -0.483995   
O342     O      0.174360000000     0.159810000000     0.421540000000    -0.512659   
O343     O      0.098100000000     0.132970000000     0.395410000000    -0.488335   
O344     O      0.133250000000     0.119210000000     0.460540000000    -0.508744   
O345     O      0.130370000000     0.047190000000     0.646500000000    -0.508677   
O346     O      0.172000000000     0.032160000000     0.639040000000    -0.483986   
O347     O      0.144120000000     0.112260000000     0.611480000000    -0.487959   
O348     O      0.132060000000     0.100190000000     0.670650000000    -0.488015   
O349     O      0.212140000000     0.072270000000     0.642800000000    -0.484057   
O350     O      0.170960000000     0.086130000000     0.687800000000    -0.513037   
O351     O      0.158140000000     0.073350000000     0.594160000000    -0.512555   
O352     O      0.197150000000     0.113920000000     0.635550000000    -0.508933   
O353     O      0.808290000000     0.113990000000     0.135570000000    -0.508702   
O354     O      0.793530000000     0.072350000000     0.142900000000    -0.484036   
O355     O      0.861210000000     0.112400000000     0.111450000000    -0.488389   
O356     O      0.873620000000     0.099990000000     0.170600000000    -0.488072   
O357     O      0.833590000000     0.032300000000     0.139030000000    -0.483995   
O358     O      0.834620000000     0.086420000000     0.187810000000    -0.512631   
O359     O      0.847660000000     0.073410000000     0.094180000000    -0.512954   
O360     O      0.875230000000     0.047070000000     0.146440000000    -0.508626   
O361     O      0.633430000000     0.119140000000     0.071600000000    -0.509005   
O362     O      0.625650000000     0.160720000000     0.056790000000    -0.484214   
O363     O      0.598130000000     0.133030000000     0.136880000000    -0.4882     
O364     O      0.657320000000     0.120770000000     0.124590000000    -0.488175   
O365     O      0.629550000000     0.200820000000     0.096860000000    -0.483879   
O366     O      0.674430000000     0.159740000000     0.110890000000    -0.512562   
O367     O      0.580890000000     0.146680000000     0.097910000000    -0.512791   
O368     O      0.621950000000     0.186040000000     0.138470000000    -0.508635   
O369     O      0.375200000000     0.047110000000     0.385440000000    -0.508583   
O370     O      0.333590000000     0.032360000000     0.393060000000    -0.48396    
O371     O      0.361260000000     0.112430000000     0.420750000000    -0.488308   
O372     O      0.373600000000     0.100090000000     0.361560000000    -0.488358   
O373     O      0.293520000000     0.072440000000     0.389140000000    -0.484086   
O374     O      0.334610000000     0.086520000000     0.344360000000    -0.51278    
O375     O      0.347660000000     0.073450000000     0.437900000000    -0.512987   
O376     O      0.308280000000     0.114030000000     0.396850000000    -0.508778   
O377     O      0.380360000000     0.111250000000     0.210640000000    -0.508801   
O378     O      0.422030000000     0.118430000000     0.225470000000    -0.483982   
O379     O      0.381960000000     0.087020000000     0.157700000000    -0.488261   
O380     O      0.394290000000     0.146150000000     0.145380000000    -0.488328   
O381     O      0.462080000000     0.114620000000     0.185380000000    -0.48394    
O382     O      0.408020000000     0.163390000000     0.184340000000    -0.512682   
O383     O      0.420930000000     0.069720000000     0.171390000000    -0.512971   
O384     O      0.447210000000     0.121880000000     0.143730000000    -0.508574   


