data_structure

_audit_creation_method RASPA-1.0
_audit_creation_date 2023-6-5
_audit_author_name 'Poobodin Mano'

_cell_length_a    32.6256
_cell_length_b    31.1207
_cell_length_c    33.0715
_cell_angle_alpha 89.5559
_cell_angle_beta  90.4441
_cell_angle_gamma 89.9991
_cell_volume      33576.5

_symmetry_cell_setting          triclinic
_symmetry_space_group_name_Hall 'P 1'
_symmetry_space_group_name_H-M  'P 1'
_symmetry_Int_Tables_number     1

_symmetry_equiv_pos_as_xyz 'x,y,z'

loop_
_atom_site_label
_atom_site_type_symbol
_atom_site_fract_x
_atom_site_fract_y
_atom_site_fract_z
_atom_site_charge
C1       C      0.316510000000     0.424370000000     0.008840000000     0.404037   
C2       C      0.281780000000     0.303160000000     0.435730000000     0.417592   
C3       C      0.398180000000     0.325200000000     0.504020000000     0.407958   
C4       C      0.270510000000     0.299600000000     0.061050000000     0.407285   
C5       C      0.323040000000     0.601910000000     0.515730000000     0.419472   
C6       C      0.280650000000     0.731540000000     0.072050000000     0.417655   
C7       C      0.405100000000     0.698860000000     0.015850000000     0.400742   
C8       C      0.284740000000     0.724560000000     0.449560000000     0.404744   
C9       C      0.566990000000     0.315740000000     0.007320000000     0.413975   
C10      C      0.688340000000     0.289880000000     0.446230000000     0.408576   
C11      C      0.651510000000     0.415290000000     0.511650000000     0.407175   
C12      C      0.692300000000     0.292180000000     0.069610000000     0.407704   
C13      C      0.657670000000     0.592860000000     0.017090000000     0.416882   
C14      C      0.694690000000     0.717060000000     0.452750000000     0.408076   
C15      C      0.574110000000     0.695470000000     0.515190000000     0.414809   
C16      C      0.698850000000     0.716890000000     0.076680000000     0.408867   
C17      C      0.822780000000     0.092780000000     0.260050000000     0.418471   
C18      C      0.775250000000     0.211860000000     0.323690000000     0.41763    
C19      C      0.899040000000     0.194360000000     0.258790000000     0.408003   
C20      C      0.778950000000     0.216870000000     0.196030000000     0.417191   
C21      C      0.905360000000     0.814160000000     0.270710000000     0.420613   
C22      C      0.776890000000     0.790730000000     0.324010000000     0.420741   
C23      C      0.823470000000     0.915090000000     0.263830000000     0.405311   
C24      C      0.787300000000     0.792840000000     0.200140000000     0.415917   
C25      C      0.074160000000     0.821440000000     0.266900000000     0.407784   
C26      C      0.195640000000     0.804990000000     0.198050000000     0.407346   
C27      C      0.149910000000     0.924130000000     0.263480000000     0.415577   
C28      C      0.202310000000     0.799300000000     0.320360000000     0.415675   
C29      C      0.067800000000     0.202270000000     0.255920000000     0.418572   
C30      C      0.195480000000     0.227410000000     0.310690000000     0.409917   
C31      C      0.150280000000     0.101890000000     0.257150000000     0.407396   
C32      C      0.183890000000     0.223780000000     0.185670000000     0.416455   
C33      C      0.148790000000     0.034090000000     0.224960000000     0.0270658  
C34      C      0.148160000000     0.037470000000     0.296040000000    -0.012671   
C35      C      0.147690000000     0.989400000000     0.227130000000     0.0339308  
C36      C      0.145120000000     0.992410000000     0.298670000000     0.150295   
C37      C      0.010070000000     0.811640000000     0.234110000000     0.0266946  
C38      C      0.013170000000     0.813830000000     0.305230000000    -0.0136093  
C39      C      0.967550000000     0.808690000000     0.235640000000     0.033698   
C40      C      0.970260000000     0.809330000000     0.307240000000     0.150122   
C41      C      0.820510000000     0.982300000000     0.297150000000     0.0268535  
C42      C      0.829810000000     0.980200000000     0.226640000000    -0.0130354  
C43      C      0.821520000000     0.027070000000     0.295790000000     0.0343123  
C44      C      0.832430000000     0.025280000000     0.225010000000     0.150826   
C45      C      0.961460000000     0.197070000000     0.222630000000     0.0259026  
C46      C      0.961770000000     0.209150000000     0.292850000000    -0.0136277  
C47      C      0.004030000000     0.200320000000     0.222210000000     0.0330194  
C48      C      0.004630000000     0.214160000000     0.292570000000     0.150856   
C49      C      0.751830000000     0.720840000000     0.409070000000     0.0273375  
C50      C      0.695480000000     0.766820000000     0.397950000000    -0.012741   
C51      C      0.771640000000     0.739060000000     0.375990000000     0.0339909  
C52      C      0.714290000000     0.784110000000     0.363280000000     0.149853   
C53      C      0.710410000000     0.774730000000     0.121700000000     0.0265315  
C54      C      0.756680000000     0.716660000000     0.120560000000    -0.0136814  
C55      C      0.733740000000     0.794010000000     0.152010000000     0.0335256  
C56      C      0.781530000000     0.736700000000     0.149770000000     0.150664   
C57      C      0.739170000000     0.291410000000     0.395380000000     0.0273496  
C58      C      0.701980000000     0.227780000000     0.407130000000    -0.0127218  
C59      C      0.761480000000     0.270890000000     0.365430000000     0.0339987  
C60      C      0.725310000000     0.206130000000     0.377950000000     0.149992   
C61      C      0.698860000000     0.239530000000     0.121530000000     0.027267   
C62      C      0.752830000000     0.288170000000     0.109750000000    -0.0129215  
C63      C      0.721520000000     0.220340000000     0.152650000000     0.0338693  
C64      C      0.776730000000     0.268020000000     0.140010000000     0.150339   
C65      C      0.652090000000     0.483470000000     0.479080000000     0.0273107  
C66      C      0.658390000000     0.479110000000     0.049970000000    -0.0134045  
C67      C      0.654780000000     0.528090000000     0.480970000000     0.0346221  
C68      C      0.662700000000     0.524030000000     0.052230000000     0.150478   
C69      C      0.230230000000     0.725150000000     0.401700000000     0.027407   
C70      C      0.281950000000     0.777770000000     0.397800000000    -0.0132029  
C71      C      0.210370000000     0.743830000000     0.368550000000     0.0342107  
C72      C      0.263260000000     0.795750000000     0.363120000000     0.150532   
C73      C      0.205410000000     0.749000000000     0.150940000000     0.0273539  
C74      C      0.247400000000     0.810460000000     0.148100000000    -0.0130791  
C75      C      0.226600000000     0.731410000000     0.118660000000     0.0339889  
C76      C      0.268080000000     0.793810000000     0.114430000000     0.149497   
C77      C      0.468890000000     0.697110000000     0.550950000000     0.0263648  
C78      C      0.467380000000     0.709170000000     0.980550000000    -0.0116835  
C79      C      0.511630000000     0.697400000000     0.550420000000     0.0342729  
C80      C      0.510420000000     0.711080000000     0.979820000000     0.153226   
C81      C      0.203750000000     0.282570000000     0.359090000000     0.0273883  
C82      C      0.255910000000     0.231100000000     0.351080000000    -0.0128617  
C83      C      0.226360000000     0.301890000000     0.389840000000     0.0339881  
C84      C      0.279790000000     0.251270000000     0.381070000000     0.150822   
C85      C      0.260500000000     0.242790000000     0.108130000000     0.0270435  
C86      C      0.211360000000     0.297980000000     0.102500000000    -0.0132081  
C87      C      0.237750000000     0.223520000000     0.138770000000     0.0341013  
C88      C      0.187260000000     0.277970000000     0.132350000000     0.15079    
C89      C      0.462080000000     0.324920000000     0.470290000000     0.0266136  
C90      C      0.459480000000     0.307960000000     0.039760000000    -0.0138867  
C91      C      0.504630000000     0.321100000000     0.471340000000     0.0338993  
C92      C      0.502280000000     0.302450000000     0.040900000000     0.150812   
C93      C      0.314470000000     0.492960000000     0.477340000000     0.0277141  
C94      C      0.324780000000     0.487710000000     0.047740000000    -0.0128064  
C95      C      0.317220000000     0.537490000000     0.479540000000     0.0345515  
C96      C      0.329190000000     0.532650000000     0.050250000000     0.149941   
C97      C      0.316510000000     0.424370000000     0.508840000000     0.407651   
C98      C      0.281780000000     0.303160000000     0.935730000000     0.417505   
C99      C      0.398180000000     0.325190000000     0.004020000000     0.404327   
C100     C      0.270510000000     0.299600000000     0.561050000000     0.407509   
C101     C      0.323040000000     0.601910000000     0.015730000000     0.415817   
C102     C      0.280650000000     0.731550000000     0.572040000000     0.417909   
C103     C      0.405100000000     0.698860000000     0.515850000000     0.40425    
C104     C      0.284740000000     0.724560000000     0.949560000000     0.404695   
C105     C      0.566990000000     0.315740000000     0.507320000000     0.417952   
C106     C      0.688350000000     0.289870000000     0.946230000000     0.407865   
C107     C      0.651510000000     0.415290000000     0.011650000000     0.403562   
C108     C      0.692300000000     0.292180000000     0.569610000000     0.408007   
C109     C      0.657680000000     0.592860000000     0.517090000000     0.420616   
C110     C      0.694690000000     0.717060000000     0.952750000000     0.407766   
C111     C      0.574110000000     0.695470000000     0.015190000000     0.411147   
C112     C      0.698850000000     0.716880000000     0.576680000000     0.409117   
C113     C      0.822780000000     0.092780000000     0.760050000000     0.418477   
C114     C      0.775250000000     0.211860000000     0.823690000000     0.417633   
C115     C      0.899040000000     0.194360000000     0.758790000000     0.408137   
C116     C      0.778950000000     0.216870000000     0.696030000000     0.417378   
C117     C      0.905360000000     0.814160000000     0.770710000000     0.42062    
C118     C      0.776890000000     0.790720000000     0.824010000000     0.420892   
C119     C      0.823470000000     0.915080000000     0.763830000000     0.405419   
C120     C      0.787300000000     0.792840000000     0.700140000000     0.415903   
C121     C      0.074160000000     0.821440000000     0.766900000000     0.407805   
C122     C      0.195640000000     0.804990000000     0.698050000000     0.407385   
C123     C      0.149910000000     0.924130000000     0.763480000000     0.415497   
C124     C      0.202310000000     0.799310000000     0.820360000000     0.415807   
C125     C      0.067800000000     0.202270000000     0.755920000000     0.418581   
C126     C      0.195480000000     0.227410000000     0.810690000000     0.410039   
C127     C      0.150280000000     0.101890000000     0.757150000000     0.407405   
C128     C      0.183890000000     0.223780000000     0.685670000000     0.416504   
C129     C      0.148790000000     0.034090000000     0.724960000000     0.027099   
C130     C      0.148160000000     0.037470000000     0.796040000000    -0.0126404  
C131     C      0.147690000000     0.989390000000     0.727130000000     0.0340476  
C132     C      0.145120000000     0.992410000000     0.798670000000     0.150445   
C133     C      0.010070000000     0.811640000000     0.734110000000     0.0267582  
C134     C      0.013170000000     0.813830000000     0.805230000000    -0.0135658  
C135     C      0.967550000000     0.808690000000     0.735640000000     0.0337716  
C136     C      0.970260000000     0.809330000000     0.807240000000     0.150254   
C137     C      0.820510000000     0.982300000000     0.797150000000     0.0269141  
C138     C      0.829810000000     0.980200000000     0.726640000000    -0.0130057  
C139     C      0.821520000000     0.027070000000     0.795790000000     0.0343947  
C140     C      0.832430000000     0.025280000000     0.725010000000     0.150947   
C141     C      0.961460000000     0.197070000000     0.722630000000     0.0259481  
C142     C      0.961770000000     0.209150000000     0.792850000000    -0.0135456  
C143     C      0.004030000000     0.200320000000     0.722210000000     0.033148   
C144     C      0.004630000000     0.214160000000     0.792570000000     0.150918   
C145     C      0.751830000000     0.720840000000     0.909070000000     0.0273902  
C146     C      0.695480000000     0.766820000000     0.897950000000    -0.0125564  
C147     C      0.771640000000     0.739060000000     0.875990000000     0.0341698  
C148     C      0.714290000000     0.784110000000     0.863280000000     0.149978   
C149     C      0.710410000000     0.774730000000     0.621700000000     0.0267062  
C150     C      0.756680000000     0.716660000000     0.620560000000    -0.0135843  
C151     C      0.733740000000     0.794010000000     0.652010000000     0.0335744  
C152     C      0.781530000000     0.736700000000     0.649770000000     0.15083    
C153     C      0.739170000000     0.291410000000     0.895380000000     0.0274815  
C154     C      0.701980000000     0.227780000000     0.907130000000    -0.0126209  
C155     C      0.761480000000     0.270890000000     0.865430000000     0.0341383  
C156     C      0.725310000000     0.206130000000     0.877950000000     0.150198   
C157     C      0.698860000000     0.239530000000     0.621530000000     0.0274012  
C158     C      0.752830000000     0.288170000000     0.609760000000    -0.0128184  
C159     C      0.721520000000     0.220340000000     0.652650000000     0.0339701  
C160     C      0.776730000000     0.268020000000     0.640010000000     0.150505   
C161     C      0.652100000000     0.483470000000     0.979070000000     0.0292046  
C162     C      0.658390000000     0.479110000000     0.549970000000    -0.012947   
C163     C      0.654780000000     0.528080000000     0.980970000000     0.0366069  
C164     C      0.662700000000     0.524040000000     0.552230000000     0.150957   
C165     C      0.230230000000     0.725150000000     0.901700000000     0.0275191  
C166     C      0.281950000000     0.777770000000     0.897810000000    -0.0130539  
C167     C      0.210370000000     0.743840000000     0.868540000000     0.0344386  
C168     C      0.263260000000     0.795740000000     0.863120000000     0.150686   
C169     C      0.205410000000     0.749000000000     0.650940000000     0.0274496  
C170     C      0.247400000000     0.810460000000     0.648100000000    -0.0130546  
C171     C      0.226600000000     0.731410000000     0.618660000000     0.03412    
C172     C      0.268080000000     0.793810000000     0.614430000000     0.149771   
C173     C      0.468890000000     0.697110000000     0.050950000000     0.0259099  
C174     C      0.467380000000     0.709170000000     0.480550000000    -0.0137314  
C175     C      0.511630000000     0.697400000000     0.050420000000     0.0338253  
C176     C      0.510410000000     0.711080000000     0.479820000000     0.151424   
C177     C      0.203750000000     0.282570000000     0.859090000000     0.0275128  
C178     C      0.255910000000     0.231100000000     0.851070000000    -0.0127463  
C179     C      0.226360000000     0.301890000000     0.889840000000     0.0341307  
C180     C      0.279790000000     0.251270000000     0.881070000000     0.151004   
C181     C      0.260500000000     0.242790000000     0.608130000000     0.0271983  
C182     C      0.211360000000     0.297980000000     0.602500000000    -0.0131158  
C183     C      0.237750000000     0.223520000000     0.638760000000     0.0341919  
C184     C      0.187260000000     0.277970000000     0.632350000000     0.150958   
C185     C      0.462080000000     0.324920000000     0.970290000000     0.0285736  
C186     C      0.459480000000     0.307960000000     0.539760000000    -0.013455   
C187     C      0.504630000000     0.321100000000     0.971340000000     0.0358478  
C188     C      0.502280000000     0.302450000000     0.540900000000     0.15129    
C189     C      0.314470000000     0.492960000000     0.977340000000     0.0296697  
C190     C      0.324780000000     0.487710000000     0.547740000000    -0.0123676  
C191     C      0.317220000000     0.537500000000     0.979540000000     0.0365559  
C192     C      0.329200000000     0.532650000000     0.550250000000     0.150402   
H1       H      0.148440000000     0.972120000000     0.198770000000     0.0431352  
H2       H      0.149560000000     0.049130000000     0.195270000000     0.0443022  
H3       H      0.147310000000     0.055900000000     0.323760000000     0.0551618  
H4       H      0.126470000000     0.943590000000     0.340050000000     0.113581   
H5       H      0.136850000000     0.993790000000     0.361560000000     0.093169   
H6       H      0.951160000000     0.807590000000     0.207000000000     0.0411079  
H7       H      0.024400000000     0.811980000000     0.204630000000     0.0443518  
H8       H      0.030710000000     0.814830000000     0.333230000000     0.0537889  
H9       H      0.923510000000     0.790730000000     0.348150000000     0.114325   
H10      H      0.971220000000     0.802730000000     0.370470000000     0.0926956  
H11      H      0.817210000000     0.043970000000     0.324010000000     0.0404355  
H12      H      0.816340000000     0.966690000000     0.326270000000     0.0441338  
H13      H      0.834190000000     0.962320000000     0.198950000000     0.0555868  
H14      H      0.855030000000     0.075210000000     0.186950000000     0.112093   
H15      H      0.848260000000     0.025240000000     0.163570000000     0.0927308  
H16      H      0.019130000000     0.195610000000     0.193480000000     0.0400482  
H17      H      0.945710000000     0.190800000000     0.194280000000     0.040864   
H18      H      0.945600000000     0.213810000000     0.321050000000     0.0554804  
H19      H      0.052970000000     0.241230000000     0.327410000000     0.116027   
H20      H      0.006550000000     0.233660000000     0.353200000000     0.0933717  
H21      H      0.802150000000     0.727310000000     0.369350000000     0.0417135  
H22      H      0.767510000000     0.695560000000     0.425820000000     0.0441526  
H23      H      0.664850000000     0.777590000000     0.405520000000     0.0531714  
H24      H      0.698770000000     0.818050000000     0.309170000000     0.112115   
H25      H      0.661990000000     0.820000000000     0.347500000000     0.0917875  
H26      H      0.722620000000     0.824180000000     0.163960000000     0.0416218  
H27      H      0.683010000000     0.791150000000     0.111080000000     0.0434693  
H28      H      0.767000000000     0.686520000000     0.107830000000     0.0539825  
H29      H      0.842890000000     0.735710000000     0.171980000000     0.117579   
H30      H      0.827850000000     0.690260000000     0.144480000000     0.0927877  
H31      H      0.784090000000     0.289970000000     0.349440000000     0.0429521  
H32      H      0.746120000000     0.324810000000     0.401600000000     0.0447951  
H33      H      0.679200000000     0.209730000000     0.423950000000     0.0543553  
H34      H      0.741030000000     0.142480000000     0.360690000000     0.1154     
H35      H      0.697930000000     0.146790000000     0.391740000000     0.0926862  
H36      H      0.707150000000     0.194160000000     0.169100000000     0.0426608  
H37      H      0.668590000000     0.226870000000     0.114920000000     0.0428669  
H38      H      0.766290000000     0.314360000000     0.092530000000     0.0547996  
H39      H      0.839130000000     0.261890000000     0.158510000000     0.116035   
H40      H      0.828410000000     0.305390000000     0.126110000000     0.0926044  
H41      H      0.652310000000     0.545810000000     0.452670000000     0.0426814  
H42      H      0.648530000000     0.468850000000     0.449590000000     0.0447344  
H43      H      0.660900000000     0.460310000000     0.077660000000     0.0557572  
H44      H      0.685360000000     0.571900000000     0.092240000000     0.115856   
H45      H      0.675600000000     0.521630000000     0.114520000000     0.093311   
H46      H      0.181640000000     0.729490000000     0.358900000000     0.0434945  
H47      H      0.216440000000     0.697020000000     0.415570000000     0.0447641  
H48      H      0.310840000000     0.791160000000     0.408260000000     0.0552009  
H49      H      0.277860000000     0.835340000000     0.312510000000     0.113005   
H50      H      0.312360000000     0.838110000000     0.353370000000     0.0928592  
H51      H      0.217420000000     0.699610000000     0.108910000000     0.0437784  
H52      H      0.180630000000     0.730420000000     0.164000000000     0.0449655  
H53      H      0.255570000000     0.842290000000     0.158680000000     0.0539502  
H54      H      0.305270000000     0.814760000000     0.065500000000     0.111745   
H55      H      0.301470000000     0.850790000000     0.105840000000     0.0922848  
H56      H      0.527570000000     0.691610000000     0.578850000000     0.0420116  
H57      H      0.453780000000     0.691910000000     0.579670000000     0.0430803  
H58      H      0.450550000000     0.714970000000     0.952590000000     0.0560001  
H59      H      0.559020000000     0.734720000000     0.943520000000     0.116888   
H60      H      0.511260000000     0.730410000000     0.918840000000     0.0931886  
H61      H      0.212640000000     0.329310000000     0.404610000000     0.0430064  
H62      H      0.174210000000     0.296340000000     0.351110000000     0.0431047  
H63      H      0.268680000000     0.203680000000     0.335470000000     0.054694   
H64      H      0.341640000000     0.255390000000     0.401470000000     0.11594    
H65      H      0.330420000000     0.211390000000     0.370360000000     0.0931526  
H66      H      0.250220000000     0.194540000000     0.152540000000     0.0428914  
H67      H      0.288870000000     0.227490000000     0.099230000000     0.0445736  
H68      H      0.199790000000     0.326940000000     0.087890000000     0.0545608  
H69      H      0.125950000000     0.276910000000     0.153710000000     0.116553   
H70      H      0.138830000000     0.321600000000     0.123640000000     0.0929482  
H71      H      0.520940000000     0.327610000000     0.443500000000     0.0419306  
H72      H      0.447520000000     0.333330000000     0.441720000000     0.0427477  
H73      H      0.442160000000     0.301520000000     0.067040000000     0.055887   
H74      H      0.548960000000     0.272510000000     0.076260000000     0.116341   
H75      H      0.501590000000     0.278880000000     0.100560000000     0.0937313  
H76      H      0.313160000000     0.555460000000     0.451550000000     0.0440001  
H77      H      0.309250000000     0.478740000000     0.447900000000     0.0455629  
H78      H      0.328850000000     0.468540000000     0.075040000000     0.054878   
H79      H      0.353770000000     0.580030000000     0.089760000000     0.113836   
H80      H      0.345190000000     0.529460000000     0.111820000000     0.0932083  
H81      H      0.148440000000     0.972130000000     0.698770000000     0.0432616  
H82      H      0.149560000000     0.049130000000     0.695280000000     0.0444752  
H83      H      0.147310000000     0.055900000000     0.823760000000     0.0553343  
H84      H      0.126470000000     0.943590000000     0.840050000000     0.11378    
H85      H      0.136850000000     0.993790000000     0.861560000000     0.0934864  
H86      H      0.951160000000     0.807590000000     0.707000000000     0.0412522  
H87      H      0.024400000000     0.811980000000     0.704630000000     0.0445115  
H88      H      0.030710000000     0.814840000000     0.833230000000     0.0539661  
H89      H      0.923510000000     0.790730000000     0.848140000000     0.114553   
H90      H      0.971230000000     0.802720000000     0.870470000000     0.0930048  
H91      H      0.817210000000     0.043970000000     0.824010000000     0.04061    
H92      H      0.816340000000     0.966700000000     0.826270000000     0.0443244  
H93      H      0.834190000000     0.962320000000     0.698950000000     0.0557386  
H94      H      0.855030000000     0.075210000000     0.686950000000     0.112249   
H95      H      0.848260000000     0.025240000000     0.663570000000     0.0929947  
H96      H      0.019130000000     0.195610000000     0.693480000000     0.0401854  
H97      H      0.945710000000     0.190800000000     0.694280000000     0.0410223  
H98      H      0.945600000000     0.213820000000     0.821050000000     0.0556489  
H99      H      0.052970000000     0.241230000000     0.827410000000     0.116203   
H100     H      0.006550000000     0.233660000000     0.853210000000     0.0936319  
H101     H      0.802150000000     0.727310000000     0.869350000000     0.0418736  
H102     H      0.767510000000     0.695560000000     0.925820000000     0.0445177  
H103     H      0.664850000000     0.777590000000     0.905510000000     0.0533525  
H104     H      0.698770000000     0.818040000000     0.809170000000     0.112187   
H105     H      0.661980000000     0.820000000000     0.847500000000     0.0919272  
H106     H      0.722620000000     0.824180000000     0.663960000000     0.0417731  
H107     H      0.683010000000     0.791150000000     0.611080000000     0.0436916  
H108     H      0.767000000000     0.686520000000     0.607830000000     0.0542105  
H109     H      0.842890000000     0.735720000000     0.671980000000     0.117711   
H110     H      0.827860000000     0.690260000000     0.644480000000     0.0930158  
H111     H      0.784090000000     0.289970000000     0.849440000000     0.0430786  
H112     H      0.746120000000     0.324810000000     0.901600000000     0.0450448  
H113     H      0.679200000000     0.209730000000     0.923950000000     0.0546885  
H114     H      0.741040000000     0.142480000000     0.860690000000     0.115564   
H115     H      0.697930000000     0.146790000000     0.891740000000     0.0930227  
H116     H      0.707150000000     0.194160000000     0.669100000000     0.0427655  
H117     H      0.668590000000     0.226870000000     0.614920000000     0.0430579  
H118     H      0.766290000000     0.314360000000     0.592530000000     0.0550644  
H119     H      0.839130000000     0.261890000000     0.658510000000     0.116194   
H120     H      0.828410000000     0.305390000000     0.626110000000     0.0928816  
H121     H      0.652310000000     0.545800000000     0.952670000000     0.0426039  
H122     H      0.648530000000     0.468850000000     0.949590000000     0.044691   
H123     H      0.660900000000     0.460310000000     0.577660000000     0.0557583  
H124     H      0.685360000000     0.571900000000     0.592240000000     0.11599    
H125     H      0.675600000000     0.521630000000     0.614520000000     0.0934489  
H126     H      0.181640000000     0.729490000000     0.858900000000     0.0436281  
H127     H      0.216440000000     0.697020000000     0.915580000000     0.0450858  
H128     H      0.310840000000     0.791160000000     0.908260000000     0.0554352  
H129     H      0.277860000000     0.835340000000     0.812510000000     0.11307    
H130     H      0.312370000000     0.838110000000     0.853370000000     0.0930094  
H131     H      0.217420000000     0.699610000000     0.608910000000     0.0440004  
H132     H      0.180630000000     0.730420000000     0.664000000000     0.0450956  
H133     H      0.255570000000     0.842290000000     0.658690000000     0.0540793  
H134     H      0.305270000000     0.814760000000     0.565500000000     0.11221    
H135     H      0.301470000000     0.850790000000     0.605840000000     0.0925889  
H136     H      0.527570000000     0.691600000000     0.078850000000     0.0419869  
H137     H      0.453780000000     0.691910000000     0.079670000000     0.0430665  
H138     H      0.450550000000     0.714970000000     0.452590000000     0.0561152  
H139     H      0.559020000000     0.734720000000     0.443510000000     0.116443   
H140     H      0.511260000000     0.730410000000     0.418840000000     0.0929606  
H141     H      0.212640000000     0.329310000000     0.904610000000     0.0433058  
H142     H      0.174210000000     0.296340000000     0.851110000000     0.0432686  
H143     H      0.268680000000     0.203680000000     0.835470000000     0.0548014  
H144     H      0.341640000000     0.255390000000     0.901470000000     0.11619    
H145     H      0.330420000000     0.211390000000     0.870360000000     0.0934062  
H146     H      0.250220000000     0.194540000000     0.652540000000     0.0430294  
H147     H      0.288870000000     0.227490000000     0.599230000000     0.0447974  
H148     H      0.199790000000     0.326930000000     0.587890000000     0.0548279  
H149     H      0.125950000000     0.276910000000     0.653710000000     0.116722   
H150     H      0.138830000000     0.321600000000     0.623640000000     0.0932234  
H151     H      0.520950000000     0.327610000000     0.943500000000     0.0418723  
H152     H      0.447520000000     0.333330000000     0.941720000000     0.0426713  
H153     H      0.442170000000     0.301520000000     0.567040000000     0.0559218  
H154     H      0.548960000000     0.272510000000     0.576270000000     0.116529   
H155     H      0.501590000000     0.278880000000     0.600570000000     0.0938489  
H156     H      0.313160000000     0.555460000000     0.951550000000     0.043916   
H157     H      0.309250000000     0.478740000000     0.947900000000     0.0454956  
H158     H      0.328850000000     0.468540000000     0.575040000000     0.0548844  
H159     H      0.353770000000     0.580020000000     0.589760000000     0.114013   
H160     H      0.345190000000     0.529460000000     0.611820000000     0.093345   
In1      In     0.316130000000     0.337720000000     0.502930000000     2.4155     
In2      In     0.322830000000     0.689040000000     0.514440000000     2.42054    
In3      In     0.649230000000     0.328460000000     0.508100000000     2.41409    
In4      In     0.655760000000     0.680020000000     0.515970000000     2.41666    
In5      In     0.817330000000     0.179680000000     0.260250000000     2.4161     
In6      In     0.823310000000     0.828290000000     0.265970000000     2.41999    
In7      In     0.155520000000     0.837280000000     0.262310000000     2.41998    
In8      In     0.149870000000     0.188780000000     0.252770000000     2.4158     
In9      In     0.316130000000     0.337720000000     0.002930000000     2.40688    
In10     In     0.322830000000     0.689040000000     0.014440000000     2.41204    
In11     In     0.649230000000     0.328460000000     0.008100000000     2.4054     
In12     In     0.655760000000     0.680020000000     0.015970000000     2.40835    
In13     In     0.817330000000     0.179680000000     0.760250000000     2.4162     
In14     In     0.823310000000     0.828290000000     0.765970000000     2.41987    
In15     In     0.155520000000     0.837280000000     0.762310000000     2.41998    
In16     In     0.149870000000     0.188780000000     0.752770000000     2.4159     
N1       N      0.149490000000     0.057970000000     0.259380000000    -0.169077   
N2       N      0.147080000000     0.968240000000     0.263690000000    -0.19574    
N3       N      0.137120000000     0.974760000000     0.335640000000    -0.211212   
N4       N      0.032650000000     0.815560000000     0.268800000000    -0.169298   
N5       N      0.947310000000     0.809800000000     0.271830000000    -0.197544   
N6       N      0.953290000000     0.801910000000     0.344160000000    -0.211819   
N7       N      0.824230000000     0.959040000000     0.262550000000    -0.168278   
N8       N      0.826100000000     0.048760000000     0.259830000000    -0.196843   
N9       N      0.844550000000     0.043740000000     0.189540000000    -0.211229   
N10      N      0.940590000000     0.200180000000     0.258110000000    -0.169604   
N11      N      0.025900000000     0.206610000000     0.257260000000    -0.197304   
N12      N      0.023220000000     0.229170000000     0.326700000000    -0.211846   
N13      N      0.714090000000     0.735120000000     0.420270000000    -0.169375   
N14      N      0.753780000000     0.771500000000     0.353700000000    -0.196924   
N15      N      0.691290000000     0.810270000000     0.338860000000    -0.211211   
N16      N      0.721620000000     0.735850000000     0.106510000000    -0.169718   
N17      N      0.768420000000     0.774600000000     0.167170000000    -0.196291   
N18      N      0.819250000000     0.719440000000     0.157370000000    -0.211968   
N19      N      0.709390000000     0.269910000000     0.416030000000    -0.169116   
N20      N      0.754170000000     0.228750000000     0.355770000000    -0.196093   
N21      N      0.720590000000     0.162720000000     0.375200000000    -0.212102   
N22      N      0.714420000000     0.273580000000     0.100420000000    -0.168974   
N23      N      0.759850000000     0.235060000000     0.162860000000    -0.196042   
N24      N      0.816900000000     0.279740000000     0.143170000000    -0.212117   
N25      N      0.653590000000     0.459150000000     0.513560000000    -0.168741   
N26      N      0.658870000000     0.548690000000     0.017320000000    -0.197658   
N27      N      0.673840000000     0.540990000000     0.088580000000    -0.212031   
N28      N      0.265550000000     0.742580000000     0.416650000000    -0.168432   
N29      N      0.225800000000     0.779890000000     0.349990000000    -0.19592    
N30      N      0.284660000000     0.826080000000     0.342100000000    -0.211079   
N31      N      0.216210000000     0.788160000000     0.165930000000    -0.169309   
N32      N      0.258740000000     0.752800000000     0.101110000000    -0.196376   
N33      N      0.294390000000     0.820410000000     0.094460000000    -0.211434   
N34      N      0.446950000000     0.701770000000     0.015860000000    -0.169234   
N35      N      0.532480000000     0.702170000000     0.514800000000    -0.196076   
N36      N      0.528600000000     0.724770000000     0.945060000000    -0.212031   
N37      N      0.218230000000     0.246820000000     0.340300000000    -0.169601   
N38      N      0.263550000000     0.285570000000     0.402070000000    -0.196173   
N39      N      0.319340000000     0.237990000000     0.386010000000    -0.211923   
N40      N      0.247640000000     0.280330000000     0.090600000000    -0.169      
N41      N      0.202040000000     0.241670000000     0.152120000000    -0.195965   
N42      N      0.148770000000     0.293580000000     0.138350000000    -0.212052   
N43      N      0.439770000000     0.319500000000     0.504700000000    -0.169144   
N44      N      0.525010000000     0.312030000000     0.006820000000    -0.197738   
N45      N      0.519340000000     0.284940000000     0.074970000000    -0.211803   
N46      N      0.318110000000     0.468200000000     0.011400000000    -0.169772   
N47      N      0.323590000000     0.557710000000     0.515790000000    -0.196334   
N48      N      0.342140000000     0.549160000000     0.086220000000    -0.211748   
N49      N      0.149490000000     0.057970000000     0.759380000000    -0.16903    
N50      N      0.147080000000     0.968250000000     0.763690000000    -0.195691   
N51      N      0.137120000000     0.974760000000     0.835640000000    -0.211224   
N52      N      0.032650000000     0.815570000000     0.768800000000    -0.169266   
N53      N      0.947310000000     0.809800000000     0.771830000000    -0.197528   
N54      N      0.953290000000     0.801910000000     0.844160000000    -0.211807   
N55      N      0.824230000000     0.959040000000     0.762550000000    -0.16819    
N56      N      0.826100000000     0.048760000000     0.759830000000    -0.196826   
N57      N      0.844550000000     0.043740000000     0.689540000000    -0.211234   
N58      N      0.940590000000     0.200180000000     0.758110000000    -0.169584   
N59      N      0.025900000000     0.206610000000     0.757250000000    -0.197278   
N60      N      0.023220000000     0.229170000000     0.826700000000    -0.21179    
N61      N      0.714080000000     0.735130000000     0.920270000000    -0.169186   
N62      N      0.753780000000     0.771500000000     0.853700000000    -0.196952   
N63      N      0.691290000000     0.810270000000     0.838860000000    -0.211167   
N64      N      0.721620000000     0.735850000000     0.606510000000    -0.169646   
N65      N      0.768430000000     0.774600000000     0.667170000000    -0.19627    
N66      N      0.819250000000     0.719440000000     0.657370000000    -0.211925   
N67      N      0.709390000000     0.269910000000     0.916030000000    -0.168909   
N68      N      0.754170000000     0.228750000000     0.855770000000    -0.19607    
N69      N      0.720590000000     0.162720000000     0.875200000000    -0.212063   
N70      N      0.714420000000     0.273580000000     0.600410000000    -0.168959   
N71      N      0.759850000000     0.235060000000     0.662860000000    -0.196056   
N72      N      0.816900000000     0.279740000000     0.643170000000    -0.212118   
N73      N      0.653590000000     0.459150000000     0.013560000000    -0.169561   
N74      N      0.658870000000     0.548690000000     0.517320000000    -0.196873   
N75      N      0.673840000000     0.540990000000     0.588580000000    -0.21209    
N76      N      0.265550000000     0.742580000000     0.916650000000    -0.168296   
N77      N      0.225800000000     0.779890000000     0.849990000000    -0.195919   
N78      N      0.284660000000     0.826070000000     0.842100000000    -0.210995   
N79      N      0.216210000000     0.788160000000     0.665930000000    -0.169269   
N80      N      0.258740000000     0.752810000000     0.601110000000    -0.196329   
N81      N      0.294390000000     0.820410000000     0.594460000000    -0.211461   
N82      N      0.446960000000     0.701760000000     0.515860000000    -0.168321   
N83      N      0.532480000000     0.702170000000     0.014800000000    -0.196931   
N84      N      0.528600000000     0.724770000000     0.445060000000    -0.211867   
N85      N      0.218230000000     0.246820000000     0.840290000000    -0.169611   
N86      N      0.263550000000     0.285570000000     0.902070000000    -0.196063   
N87      N      0.319340000000     0.237990000000     0.886010000000    -0.211903   
N88      N      0.247640000000     0.280330000000     0.590600000000    -0.168936   
N89      N      0.202040000000     0.241670000000     0.652120000000    -0.195942   
N90      N      0.148770000000     0.293580000000     0.638350000000    -0.212051   
N91      N      0.439770000000     0.319500000000     0.004700000000    -0.170008   
N92      N      0.525010000000     0.312030000000     0.506820000000    -0.196966   
N93      N      0.519340000000     0.284940000000     0.574970000000    -0.211797   
N94      N      0.318110000000     0.468200000000     0.511400000000    -0.168925   
N95      N      0.323590000000     0.557710000000     0.015790000000    -0.197159   
N96      N      0.342140000000     0.549160000000     0.586220000000    -0.211849   
O1       O      0.260110000000     0.334420000000     0.043990000000    -0.500566   
O2       O      0.303840000000     0.284050000000     0.048680000000    -0.496057   
O3       O      0.269810000000     0.338070000000     0.450920000000    -0.498061   
O4       O      0.311860000000     0.405070000000     0.475680000000    -0.495058   
O5       O      0.376300000000     0.321140000000     0.035150000000    -0.493474   
O6       O      0.320570000000     0.399860000000     0.039240000000    -0.497855   
O7       O      0.310060000000     0.284960000000     0.455630000000    -0.506284   
O8       O      0.378600000000     0.335450000000     0.472310000000    -0.502967   
O9       O      0.271860000000     0.690840000000     0.466800000000    -0.495727   
O10      O      0.316890000000     0.740210000000     0.465080000000    -0.496422   
O11      O      0.315700000000     0.743030000000     0.060350000000    -0.507111   
O12      O      0.318950000000     0.624160000000     0.047150000000    -0.5035     
O13      O      0.384640000000     0.691930000000     0.547550000000    -0.498135   
O14      O      0.324890000000     0.623920000000     0.483540000000    -0.505201   
O15      O      0.268030000000     0.697240000000     0.056000000000    -0.504513   
O16      O      0.383880000000     0.701650000000     0.983840000000    -0.491964   
O17      O      0.657140000000     0.279150000000     0.059130000000    -0.495788   
O18      O      0.705610000000     0.323500000000     0.049040000000    -0.49909    
O19      O      0.695190000000     0.328270000000     0.456360000000    -0.496207   
O20      O      0.587870000000     0.319190000000     0.475440000000    -0.504017   
O21      O      0.653530000000     0.391470000000     0.042670000000    -0.497065   
O22      O      0.587750000000     0.319710000000     0.039380000000    -0.502505   
O23      O      0.661280000000     0.271100000000     0.466990000000    -0.500922   
O24      O      0.648140000000     0.395260000000     0.478710000000    -0.494444   
O25      O      0.707960000000     0.680830000000     0.062040000000    -0.504721   
O26      O      0.667510000000     0.734280000000     0.060980000000    -0.498024   
O27      O      0.660130000000     0.729620000000     0.464850000000    -0.498681   
O28      O      0.661450000000     0.614900000000     0.485110000000    -0.502108   
O29      O      0.594240000000     0.687030000000     0.983820000000    -0.500551   
O30      O      0.650910000000     0.615000000000     0.048090000000    -0.506715   
O31      O      0.709630000000     0.685980000000     0.472700000000    -0.497616   
O32      O      0.595140000000     0.694330000000     0.547480000000    -0.497047   
O33      O      0.808880000000     0.233890000000     0.214160000000    -0.507052   
O34      O      0.766920000000     0.182110000000     0.211990000000    -0.498618   
O35      O      0.764800000000     0.177950000000     0.305670000000    -0.506791   
O36      O      0.825080000000     0.114540000000     0.292090000000    -0.505082   
O37      O      0.878260000000     0.186260000000     0.227410000000    -0.505182   
O38      O      0.815400000000     0.114900000000     0.228780000000    -0.503911   
O39      O      0.805990000000     0.230330000000     0.308370000000    -0.501356   
O40      O      0.878450000000     0.195600000000     0.290950000000    -0.494384   
O41      O      0.812730000000     0.773120000000     0.222370000000    -0.50461    
O42      O      0.778820000000     0.830210000000     0.212260000000    -0.497788   
O43      O      0.810700000000     0.775510000000     0.312500000000    -0.508838   
O44      O      0.884360000000     0.825650000000     0.300610000000    -0.5068     
O45      O      0.819150000000     0.893920000000     0.296290000000    -0.49436    
O46      O      0.884790000000     0.810660000000     0.238420000000    -0.507817   
O47      O      0.767620000000     0.825980000000     0.307330000000    -0.508012   
O48      O      0.827530000000     0.892360000000     0.232620000000    -0.498142   
O49      O      0.170990000000     0.781620000000     0.305090000000    -0.502409   
O50      O      0.208560000000     0.836970000000     0.307510000000    -0.502766   
O51      O      0.166320000000     0.785690000000     0.215010000000    -0.498966   
O52      O      0.093100000000     0.823850000000     0.233810000000    -0.500074   
O53      O      0.146080000000     0.902420000000     0.231510000000    -0.502121   
O54      O      0.096470000000     0.826250000000     0.297930000000    -0.500903   
O55      O      0.204500000000     0.840950000000     0.213270000000    -0.500743   
O56      O      0.158490000000     0.901830000000     0.294400000000    -0.500901   
O57      O      0.157500000000     0.242980000000     0.206560000000    -0.504552   
O58      O      0.194160000000     0.187430000000     0.199750000000    -0.497949   
O59      O      0.160800000000     0.241200000000     0.299450000000    -0.502357   
O60      O      0.087240000000     0.200070000000     0.223100000000    -0.505298   
O61      O      0.149300000000     0.122270000000     0.224000000000    -0.495974   
O62      O      0.089870000000     0.196510000000     0.286930000000    -0.504078   
O63      O      0.207300000000     0.194150000000     0.292510000000    -0.500976   
O64      O      0.151370000000     0.125400000000     0.288090000000    -0.498458   
O65      O      0.260110000000     0.334420000000     0.543990000000    -0.500801   
O66      O      0.303840000000     0.284050000000     0.548680000000    -0.496352   
O67      O      0.269810000000     0.338060000000     0.950920000000    -0.496356   
O68      O      0.311860000000     0.405070000000     0.975680000000    -0.491265   
O69      O      0.376300000000     0.321140000000     0.535150000000    -0.494743   
O70      O      0.320570000000     0.399860000000     0.539240000000    -0.499172   
O71      O      0.310060000000     0.284960000000     0.955620000000    -0.504306   
O72      O      0.378600000000     0.335450000000     0.972310000000    -0.499156   
O73      O      0.271860000000     0.690850000000     0.966790000000    -0.493824   
O74      O      0.316890000000     0.740210000000     0.965080000000    -0.494587   
O75      O      0.315700000000     0.743030000000     0.560350000000    -0.50756    
O76      O      0.318960000000     0.624160000000     0.547150000000    -0.504838   
O77      O      0.384640000000     0.691930000000     0.047550000000    -0.49687    
O78      O      0.324890000000     0.623920000000     0.983540000000    -0.501381   
O79      O      0.268030000000     0.697240000000     0.556010000000    -0.504685   
O80      O      0.383880000000     0.701650000000     0.483840000000    -0.49572    
O81      O      0.657140000000     0.279150000000     0.559130000000    -0.496175   
O82      O      0.705610000000     0.323500000000     0.549040000000    -0.499331   
O83      O      0.695200000000     0.328280000000     0.956360000000    -0.494003   
O84      O      0.587870000000     0.319190000000     0.975430000000    -0.50001    
O85      O      0.653530000000     0.391470000000     0.542670000000    -0.498406   
O86      O      0.587740000000     0.319710000000     0.539380000000    -0.503853   
O87      O      0.661280000000     0.271100000000     0.966990000000    -0.498736   
O88      O      0.648140000000     0.395260000000     0.978710000000    -0.490638   
O89      O      0.707960000000     0.680830000000     0.562040000000    -0.505102   
O90      O      0.667510000000     0.734280000000     0.560980000000    -0.498255   
O91      O      0.660130000000     0.729620000000     0.964850000000    -0.496847   
O92      O      0.661450000000     0.614910000000     0.985110000000    -0.498331   
O93      O      0.594240000000     0.687030000000     0.483820000000    -0.504304   
O94      O      0.650910000000     0.614990000000     0.548090000000    -0.507984   
O95      O      0.709630000000     0.685980000000     0.972700000000    -0.495598   
O96      O      0.595140000000     0.694340000000     0.047480000000    -0.495749   
O97      O      0.808880000000     0.233890000000     0.714160000000    -0.507057   
O98      O      0.766930000000     0.182110000000     0.711990000000    -0.498688   
O99      O      0.764810000000     0.177950000000     0.805670000000    -0.506836   
O100     O      0.825080000000     0.114540000000     0.792090000000    -0.504959   
O101     O      0.878270000000     0.186260000000     0.727410000000    -0.505087   
O102     O      0.815400000000     0.114900000000     0.728780000000    -0.503816   
O103     O      0.806000000000     0.230330000000     0.808370000000    -0.5012     
O104     O      0.878460000000     0.195600000000     0.790950000000    -0.494241   
O105     O      0.812730000000     0.773120000000     0.722370000000    -0.50457    
O106     O      0.778810000000     0.830210000000     0.712250000000    -0.497543   
O107     O      0.810700000000     0.775510000000     0.812500000000    -0.508778   
O108     O      0.884360000000     0.825650000000     0.800610000000    -0.506666   
O109     O      0.819150000000     0.893920000000     0.796290000000    -0.49427    
O110     O      0.884790000000     0.810660000000     0.738420000000    -0.507718   
O111     O      0.767630000000     0.825980000000     0.807330000000    -0.50798    
O112     O      0.827530000000     0.892370000000     0.732620000000    -0.498064   
O113     O      0.170990000000     0.781620000000     0.805100000000    -0.502272   
O114     O      0.208560000000     0.836970000000     0.807510000000    -0.502782   
O115     O      0.166320000000     0.785690000000     0.715010000000    -0.498894   
O116     O      0.093100000000     0.823850000000     0.733810000000    -0.499959   
O117     O      0.146080000000     0.902420000000     0.731510000000    -0.501982   
O118     O      0.096470000000     0.826250000000     0.797930000000    -0.500773   
O119     O      0.204500000000     0.840950000000     0.713270000000    -0.500667   
O120     O      0.158490000000     0.901830000000     0.794400000000    -0.500763   
O121     O      0.157500000000     0.242980000000     0.706560000000    -0.504516   
O122     O      0.194160000000     0.187430000000     0.699750000000    -0.497865   
O123     O      0.160800000000     0.241200000000     0.799450000000    -0.502295   
O124     O      0.087240000000     0.200070000000     0.723100000000    -0.505198   
O125     O      0.149300000000     0.122270000000     0.724000000000    -0.495864   
O126     O      0.089870000000     0.196510000000     0.786930000000    -0.50398    
O127     O      0.207300000000     0.194150000000     0.792510000000    -0.500918   
O128     O      0.151370000000     0.125400000000     0.788090000000    -0.498331   


