data_structure

_audit_creation_method RASPA-1.0
_audit_creation_date 2023-5-23
_audit_author_name 'Poobodin Mano'

_cell_length_a    41.364
_cell_length_b    41.3858
_cell_length_c    31.2551
_cell_angle_alpha 90.0345
_cell_angle_beta  89.9992
_cell_angle_gamma 120.054
_cell_volume      46311.5

_symmetry_cell_setting          triclinic
_symmetry_space_group_name_Hall 'P 1'
_symmetry_space_group_name_H-M  'P 1'
_symmetry_Int_Tables_number     1

_symmetry_equiv_pos_as_xyz 'x,y,z'

loop_
_atom_site_label
_atom_site_type_symbol
_atom_site_fract_x
_atom_site_fract_y
_atom_site_fract_z
_atom_site_charge
C1       C      0.370690000000     0.219340000000     0.423770000000     0.401899   
C2       C      0.358850000000     0.219400000000     0.585840000000     0.401705   
C3       C      0.449070000000     0.265720000000     0.513870000000     0.401072   
C4       C      0.326970000000     0.265720000000     0.495730000000     0.401155   
C5       C      0.342030000000     0.202610000000     0.090420000000     0.401606   
C6       C      0.342050000000     0.190800000000     0.252500000000     0.401649   
C7       C      0.295780000000     0.234590000000     0.180500000000     0.400938   
C8       C      0.295780000000     0.112480000000     0.162400000000     0.400863   
C9       C      0.189150000000     0.355900000000     0.585810000000     0.40194    
C10      C      0.177300000000     0.355920000000     0.423740000000     0.401759   
C11      C      0.221030000000     0.309550000000     0.495680000000     0.401179   
C12      C      0.098930000000     0.309550000000     0.513820000000     0.401197   
C13      C      0.205900000000     0.372610000000     0.090410000000     0.401795   
C14      C      0.205880000000     0.384460000000     0.252500000000     0.401863   
C15      C      0.252140000000     0.340640000000     0.180490000000     0.400901   
C16      C      0.252140000000     0.462740000000     0.162460000000     0.400991   
C17      C      0.177350000000     0.372540000000     0.919140000000     0.401724   
C18      C      0.189210000000     0.384410000000     0.757100000000     0.401791   
C19      C      0.098960000000     0.340630000000     0.829010000000     0.401129   
C20      C      0.221070000000     0.462730000000     0.847260000000     0.401202   
C21      C      0.370660000000     0.202820000000     0.919150000000     0.402066   
C22      C      0.358770000000     0.190900000000     0.757090000000     0.401841   
C23      C      0.449030000000     0.234720000000     0.829030000000     0.400981   
C24      C      0.326940000000     0.112620000000     0.847220000000     0.401238   
C25      C      0.284500000000     0.011120000000     0.850470000000     0.0333674  
C26      C      0.236600000000     0.026330000000     0.850300000000     0.033408   
C27      C      0.263510000000     0.064240000000     0.850450000000     0.0336024  
C28      C      0.311410000000     0.049030000000     0.850290000000     0.0334846  
C29      C      0.050590000000     0.277220000000     0.825780000000     0.0335647  
C30      C      0.035320000000     0.325050000000     0.826000000000     0.0334504  
C31      C      0.497400000000     0.298130000000     0.825840000000     0.0334999  
C32      C      0.512670000000     0.250300000000     0.825950000000     0.033541   
C33      C      0.212290000000     0.365320000000     0.974770000000     0.033386   
C34      C      0.156840000000     0.365870000000     0.991120000000     0.0341003  
C35      C      0.163650000000     0.365150000000     0.034760000000     0.0334067  
C36      C      0.219840000000     0.366090000000     0.018410000000     0.0341035  
C37      C      0.196570000000     0.398110000000     0.641490000000     0.0334569  
C38      C      0.195720000000     0.341990000000     0.657780000000     0.0340452  
C39      C      0.196490000000     0.349540000000     0.701430000000     0.0334835  
C40      C      0.195840000000     0.404910000000     0.685130000000     0.0340183  
C41      C      0.212230000000     0.398120000000     0.368150000000     0.03349    
C42      C      0.156810000000     0.342040000000     0.351740000000     0.0339843  
C43      C      0.163630000000     0.349600000000     0.308110000000     0.0335598  
C44      C      0.219800000000     0.404920000000     0.324510000000     0.0340348  
C45      C      0.236900000000     0.010920000000     0.159270000000     0.0333354  
C46      C      0.300120000000     0.026430000000     0.159430000000     0.0333802  
C47      C      0.311020000000     0.064300000000     0.159240000000     0.0335572  
C48      C      0.247800000000     0.048790000000     0.159420000000     0.0335291  
C49      C      0.311020000000     0.298020000000     0.183710000000     0.0335736  
C50      C      0.247800000000     0.250250000000     0.183480000000     0.0335039  
C51      C      0.236900000000     0.277200000000     0.183650000000     0.0334927  
C52      C      0.300120000000     0.324980000000     0.183540000000     0.0334474  
C53      C      0.384310000000     0.210140000000     0.034790000000     0.0335645  
C54      C      0.328100000000     0.209150000000     0.018440000000     0.0340201  
C55      C      0.335680000000     0.209970000000     0.974800000000     0.0334499  
C56      C      0.391150000000     0.209460000000     0.991150000000     0.033996   
C57      C      0.351410000000     0.177190000000     0.641470000000     0.0334857  
C58      C      0.352280000000     0.233320000000     0.657830000000     0.0339428  
C59      C      0.351510000000     0.225770000000     0.701460000000     0.033553   
C60      C      0.352130000000     0.170390000000     0.685100000000     0.0340373  
C61      C      0.497330000000     0.250580000000     0.517020000000     0.033523   
C62      C      0.012760000000     0.313740000000     0.516900000000     0.0335017  
C63      C      0.050660000000     0.324690000000     0.517050000000     0.0334641  
C64      C      0.035240000000     0.261530000000     0.516840000000     0.0334466  
C65      C      0.284470000000     0.324690000000     0.492520000000     0.0335084  
C66      C      0.236600000000     0.261530000000     0.492640000000     0.0335281  
C67      C      0.263530000000     0.250580000000     0.492490000000     0.0335271  
C68      C      0.311400000000     0.313740000000     0.492700000000     0.0335254  
C69      C      0.391150000000     0.233200000000     0.351780000000     0.0340515  
C70      C      0.335720000000     0.177140000000     0.368110000000     0.0335026  
C71      C      0.328140000000     0.170340000000     0.324480000000     0.0340038  
C72      C      0.384320000000     0.225650000000     0.308140000000     0.0334823  
C73      C      0.370690000000     0.719340000000     0.423770000000     0.401902   
C74      C      0.358850000000     0.719400000000     0.585840000000     0.401804   
C75      C      0.449070000000     0.765720000000     0.513870000000     0.401074   
C76      C      0.326970000000     0.765730000000     0.495730000000     0.401118   
C77      C      0.342030000000     0.702610000000     0.090420000000     0.401966   
C78      C      0.342050000000     0.690790000000     0.252500000000     0.401749   
C79      C      0.295780000000     0.734590000000     0.180500000000     0.400948   
C80      C      0.295780000000     0.612480000000     0.162410000000     0.400875   
C81      C      0.189150000000     0.855900000000     0.585810000000     0.401941   
C82      C      0.177300000000     0.855920000000     0.423740000000     0.401464   
C83      C      0.221030000000     0.809550000000     0.495680000000     0.401177   
C84      C      0.098930000000     0.809550000000     0.513820000000     0.40101    
C85      C      0.205900000000     0.872610000000     0.090410000000     0.401792   
C86      C      0.205880000000     0.884460000000     0.252510000000     0.401643   
C87      C      0.252140000000     0.840640000000     0.180490000000     0.400905   
C88      C      0.252140000000     0.962740000000     0.162460000000     0.400975   
C89      C      0.177350000000     0.872540000000     0.919140000000     0.401725   
C90      C      0.189210000000     0.884420000000     0.757100000000     0.401807   
C91      C      0.098960000000     0.840630000000     0.829010000000     0.401213   
C92      C      0.221070000000     0.962740000000     0.847270000000     0.401318   
C93      C      0.370660000000     0.702820000000     0.919150000000     0.402067   
C94      C      0.358770000000     0.690900000000     0.757090000000     0.401836   
C95      C      0.449030000000     0.734720000000     0.829030000000     0.400982   
C96      C      0.326930000000     0.612620000000     0.847220000000     0.401242   
C97      C      0.284500000000     0.511120000000     0.850470000000     0.0335156  
C98      C      0.236600000000     0.526330000000     0.850300000000     0.0334819  
C99      C      0.263510000000     0.564240000000     0.850450000000     0.0335757  
C100     C      0.311410000000     0.549030000000     0.850280000000     0.0334603  
C101     C      0.050590000000     0.777220000000     0.825780000000     0.0336123  
C102     C      0.035320000000     0.825050000000     0.826000000000     0.0333953  
C103     C      0.497400000000     0.798130000000     0.825840000000     0.0335018  
C104     C      0.512670000000     0.750300000000     0.825950000000     0.0335427  
C105     C      0.212290000000     0.865320000000     0.974770000000     0.0334129  
C106     C      0.156840000000     0.865870000000     0.991120000000     0.0340946  
C107     C      0.163650000000     0.865150000000     0.034760000000     0.033411   
C108     C      0.219850000000     0.866100000000     0.018410000000     0.0340643  
C109     C      0.196570000000     0.898110000000     0.641490000000     0.0334676  
C110     C      0.195720000000     0.841990000000     0.657780000000     0.0340609  
C111     C      0.196490000000     0.849540000000     0.701430000000     0.0334879  
C112     C      0.195840000000     0.904910000000     0.685130000000     0.0340047  
C113     C      0.212230000000     0.898120000000     0.368150000000     0.0335009  
C114     C      0.156810000000     0.842040000000     0.351740000000     0.0339667  
C115     C      0.163630000000     0.849600000000     0.308110000000     0.0335535  
C116     C      0.219800000000     0.904920000000     0.324510000000     0.0340501  
C117     C      0.236900000000     0.510920000000     0.159270000000     0.0335195  
C118     C      0.300120000000     0.526430000000     0.159430000000     0.033475   
C119     C      0.311020000000     0.564300000000     0.159250000000     0.0335315  
C120     C      0.247800000000     0.548790000000     0.159420000000     0.0334739  
C121     C      0.311020000000     0.798020000000     0.183710000000     0.0335738  
C122     C      0.247800000000     0.750250000000     0.183490000000     0.0335074  
C123     C      0.236900000000     0.777200000000     0.183650000000     0.0334878  
C124     C      0.300120000000     0.824980000000     0.183540000000     0.033451   
C125     C      0.384310000000     0.710140000000     0.034790000000     0.0335621  
C126     C      0.328100000000     0.709150000000     0.018440000000     0.0340565  
C127     C      0.335680000000     0.709970000000     0.974800000000     0.0334373  
C128     C      0.391150000000     0.709460000000     0.991150000000     0.0340104  
C129     C      0.351410000000     0.677190000000     0.641470000000     0.0335057  
C130     C      0.352290000000     0.733320000000     0.657830000000     0.0340617  
C131     C      0.351510000000     0.725780000000     0.701460000000     0.0334107  
C132     C      0.352130000000     0.670390000000     0.685100000000     0.0340277  
C133     C      0.497340000000     0.750580000000     0.517020000000     0.0334947  
C134     C      0.012760000000     0.813740000000     0.516900000000     0.0334679  
C135     C      0.050660000000     0.824690000000     0.517050000000     0.0335665  
C136     C      0.035240000000     0.761530000000     0.516840000000     0.0333999  
C137     C      0.284470000000     0.824690000000     0.492520000000     0.0335368  
C138     C      0.236600000000     0.761530000000     0.492640000000     0.0335365  
C139     C      0.263530000000     0.750580000000     0.492490000000     0.0335157  
C140     C      0.311400000000     0.813740000000     0.492700000000     0.0335236  
C141     C      0.391150000000     0.733200000000     0.351780000000     0.034048   
C142     C      0.335720000000     0.677140000000     0.368110000000     0.0335058  
C143     C      0.328140000000     0.670340000000     0.324480000000     0.0340049  
C144     C      0.384320000000     0.725650000000     0.308140000000     0.0334968  
C145     C      0.870690000000     0.219340000000     0.423770000000     0.401899   
C146     C      0.858850000000     0.219400000000     0.585840000000     0.401705   
C147     C      0.949070000000     0.265720000000     0.513870000000     0.401079   
C148     C      0.826970000000     0.265720000000     0.495730000000     0.401155   
C149     C      0.842030000000     0.202610000000     0.090420000000     0.401948   
C150     C      0.842050000000     0.190800000000     0.252500000000     0.401851   
C151     C      0.795780000000     0.234590000000     0.180500000000     0.40094    
C152     C      0.795780000000     0.112480000000     0.162400000000     0.40087    
C153     C      0.689150000000     0.355900000000     0.585810000000     0.401939   
C154     C      0.677300000000     0.355920000000     0.423740000000     0.401873   
C155     C      0.721030000000     0.309550000000     0.495680000000     0.401178   
C156     C      0.598930000000     0.309550000000     0.513820000000     0.401203   
C157     C      0.705900000000     0.372610000000     0.090410000000     0.401793   
C158     C      0.705880000000     0.384460000000     0.252500000000     0.401863   
C159     C      0.752140000000     0.340640000000     0.180490000000     0.400901   
C160     C      0.752140000000     0.462740000000     0.162460000000     0.400991   
C161     C      0.677350000000     0.372540000000     0.919140000000     0.401727   
C162     C      0.689210000000     0.384410000000     0.757100000000     0.401791   
C163     C      0.598960000000     0.340630000000     0.829010000000     0.401132   
C164     C      0.721070000000     0.462730000000     0.847260000000     0.401217   
C165     C      0.870660000000     0.202820000000     0.919150000000     0.402066   
C166     C      0.858770000000     0.190900000000     0.757090000000     0.401816   
C167     C      0.949030000000     0.234720000000     0.829030000000     0.400985   
C168     C      0.826930000000     0.112620000000     0.847220000000     0.401242   
C169     C      0.784500000000     0.011120000000     0.850470000000     0.0333441  
C170     C      0.736600000000     0.026330000000     0.850300000000     0.0333989  
C171     C      0.763510000000     0.064240000000     0.850450000000     0.033601   
C172     C      0.811410000000     0.049030000000     0.850290000000     0.0335101  
C173     C      0.550590000000     0.277220000000     0.825780000000     0.0335624  
C174     C      0.535320000000     0.325050000000     0.826000000000     0.0335186  
C175     C      0.997400000000     0.298130000000     0.825840000000     0.0335702  
C176     C      0.012670000000     0.250300000000     0.825950000000     0.0334899  
C177     C      0.712280000000     0.365320000000     0.974770000000     0.0334985  
C178     C      0.656840000000     0.365870000000     0.991120000000     0.0340955  
C179     C      0.663650000000     0.365150000000     0.034760000000     0.0334064  
C180     C      0.719840000000     0.366090000000     0.018410000000     0.0340477  
C181     C      0.696570000000     0.398110000000     0.641490000000     0.0334328  
C182     C      0.695720000000     0.341990000000     0.657780000000     0.0340431  
C183     C      0.696490000000     0.349540000000     0.701430000000     0.0334872  
C184     C      0.695850000000     0.404910000000     0.685130000000     0.0340636  
C185     C      0.712230000000     0.398120000000     0.368150000000     0.0335065  
C186     C      0.656810000000     0.342040000000     0.351740000000     0.0339904  
C187     C      0.663630000000     0.349600000000     0.308110000000     0.03356    
C188     C      0.719800000000     0.404920000000     0.324510000000     0.0340196  
C189     C      0.736900000000     0.010920000000     0.159270000000     0.0333347  
C190     C      0.800120000000     0.026430000000     0.159430000000     0.0333804  
C191     C      0.811020000000     0.064300000000     0.159240000000     0.0335583  
C192     C      0.747800000000     0.048790000000     0.159420000000     0.0335307  
C193     C      0.811020000000     0.298020000000     0.183710000000     0.033575   
C194     C      0.747800000000     0.250250000000     0.183480000000     0.033505   
C195     C      0.736900000000     0.277200000000     0.183650000000     0.0334934  
C196     C      0.800120000000     0.324980000000     0.183540000000     0.0334481  
C197     C      0.884310000000     0.210140000000     0.034790000000     0.0335806  
C198     C      0.828100000000     0.209150000000     0.018440000000     0.0340413  
C199     C      0.835680000000     0.209970000000     0.974800000000     0.0334427  
C200     C      0.891150000000     0.209460000000     0.991150000000     0.0339918  
C201     C      0.851410000000     0.177190000000     0.641470000000     0.0335029  
C202     C      0.852280000000     0.233320000000     0.657830000000     0.0339296  
C203     C      0.851510000000     0.225770000000     0.701460000000     0.0335918  
C204     C      0.852130000000     0.170390000000     0.685100000000     0.0340014  
C205     C      0.997330000000     0.250580000000     0.517020000000     0.0336284  
C206     C      0.512760000000     0.313740000000     0.516900000000     0.0335295  
C207     C      0.550670000000     0.324690000000     0.517050000000     0.0335265  
C208     C      0.535240000000     0.261530000000     0.516840000000     0.0335338  
C209     C      0.784470000000     0.324690000000     0.492520000000     0.0335094  
C210     C      0.736600000000     0.261530000000     0.492640000000     0.033529   
C211     C      0.763530000000     0.250580000000     0.492490000000     0.0335283  
C212     C      0.811400000000     0.313740000000     0.492700000000     0.0335265  
C213     C      0.891150000000     0.233200000000     0.351780000000     0.034049   
C214     C      0.835720000000     0.177140000000     0.368110000000     0.0334999  
C215     C      0.828140000000     0.170340000000     0.324480000000     0.0340131  
C216     C      0.884320000000     0.225650000000     0.308140000000     0.0334956  
C217     C      0.870690000000     0.719340000000     0.423770000000     0.4019     
C218     C      0.858850000000     0.719400000000     0.585840000000     0.401709   
C219     C      0.949070000000     0.765720000000     0.513870000000     0.401236   
C220     C      0.826970000000     0.765730000000     0.495730000000     0.401121   
C221     C      0.842030000000     0.702610000000     0.090420000000     0.401966   
C222     C      0.842050000000     0.690790000000     0.252500000000     0.401723   
C223     C      0.795780000000     0.734590000000     0.180500000000     0.400948   
C224     C      0.795780000000     0.612480000000     0.162410000000     0.400875   
C225     C      0.689150000000     0.855900000000     0.585810000000     0.401941   
C226     C      0.677300000000     0.855920000000     0.423740000000     0.401709   
C227     C      0.721030000000     0.809550000000     0.495680000000     0.401176   
C228     C      0.598930000000     0.809550000000     0.513820000000     0.401021   
C229     C      0.705900000000     0.872610000000     0.090410000000     0.401796   
C230     C      0.705880000000     0.884460000000     0.252510000000     0.401842   
C231     C      0.752140000000     0.840640000000     0.180490000000     0.400905   
C232     C      0.752140000000     0.962740000000     0.162460000000     0.400978   
C233     C      0.677350000000     0.872540000000     0.919140000000     0.40172    
C234     C      0.689210000000     0.884420000000     0.757100000000     0.401805   
C235     C      0.598960000000     0.840630000000     0.829010000000     0.40113    
C236     C      0.721070000000     0.962740000000     0.847270000000     0.400999   
C237     C      0.870660000000     0.702820000000     0.919150000000     0.402067   
C238     C      0.858770000000     0.690900000000     0.757090000000     0.401835   
C239     C      0.949030000000     0.734720000000     0.829030000000     0.400985   
C240     C      0.826940000000     0.612620000000     0.847220000000     0.401239   
C241     C      0.784500000000     0.511120000000     0.850470000000     0.0335191  
C242     C      0.736600000000     0.526330000000     0.850300000000     0.0334853  
C243     C      0.763510000000     0.564240000000     0.850450000000     0.0335834  
C244     C      0.811410000000     0.549030000000     0.850280000000     0.0334461  
C245     C      0.550590000000     0.777220000000     0.825780000000     0.0335637  
C246     C      0.535320000000     0.825050000000     0.826000000000     0.0335199  
C247     C      0.997400000000     0.798130000000     0.825840000000     0.0335934  
C248     C      0.012670000000     0.750300000000     0.825950000000     0.0334712  
C249     C      0.712290000000     0.865320000000     0.974770000000     0.0334133  
C250     C      0.656840000000     0.865870000000     0.991120000000     0.0340959  
C251     C      0.663650000000     0.865150000000     0.034760000000     0.0334138  
C252     C      0.719850000000     0.866100000000     0.018410000000     0.0340662  
C253     C      0.696570000000     0.898110000000     0.641490000000     0.0334439  
C254     C      0.695720000000     0.841990000000     0.657780000000     0.0340592  
C255     C      0.696490000000     0.849540000000     0.701430000000     0.0334912  
C256     C      0.695850000000     0.904910000000     0.685130000000     0.0340499  
C257     C      0.712230000000     0.898120000000     0.368150000000     0.0335067  
C258     C      0.656810000000     0.842040000000     0.351740000000     0.0339774  
C259     C      0.663630000000     0.849600000000     0.308110000000     0.0335601  
C260     C      0.719800000000     0.904920000000     0.324510000000     0.0340546  
C261     C      0.736900000000     0.510920000000     0.159270000000     0.0335205  
C262     C      0.800120000000     0.526430000000     0.159430000000     0.0334762  
C263     C      0.811020000000     0.564300000000     0.159250000000     0.0335327  
C264     C      0.747800000000     0.548790000000     0.159420000000     0.033475   
C265     C      0.811020000000     0.798020000000     0.183710000000     0.0335743  
C266     C      0.747800000000     0.750250000000     0.183490000000     0.0335081  
C267     C      0.736900000000     0.777200000000     0.183650000000     0.0334892  
C268     C      0.800120000000     0.824980000000     0.183540000000     0.0334522  
C269     C      0.884310000000     0.710140000000     0.034790000000     0.0335644  
C270     C      0.828100000000     0.709150000000     0.018440000000     0.0340578  
C271     C      0.835680000000     0.709970000000     0.974800000000     0.0334387  
C272     C      0.891150000000     0.709460000000     0.991150000000     0.0340126  
C273     C      0.851410000000     0.677190000000     0.641470000000     0.033503   
C274     C      0.852290000000     0.733320000000     0.657830000000     0.0340637  
C275     C      0.851510000000     0.725780000000     0.701460000000     0.0334002  
C276     C      0.852130000000     0.670390000000     0.685100000000     0.034031   
C277     C      0.997340000000     0.750580000000     0.517020000000     0.0335738  
C278     C      0.512760000000     0.813740000000     0.516900000000     0.0334861  
C279     C      0.550670000000     0.824690000000     0.517050000000     0.033633   
C280     C      0.535240000000     0.761530000000     0.516840000000     0.0334756  
C281     C      0.784470000000     0.824690000000     0.492520000000     0.0335371  
C282     C      0.736600000000     0.761530000000     0.492640000000     0.033537   
C283     C      0.763530000000     0.750580000000     0.492490000000     0.0335174  
C284     C      0.811400000000     0.813740000000     0.492700000000     0.033525   
C285     C      0.891150000000     0.733200000000     0.351780000000     0.0340346  
C286     C      0.835720000000     0.677140000000     0.368110000000     0.0335224  
C287     C      0.828140000000     0.670340000000     0.324480000000     0.0339685  
C288     C      0.884320000000     0.725650000000     0.308140000000     0.0335362  
H1       H      0.294100000000     0.491080000000     0.850380000000     0.046318   
H2       H      0.207380000000     0.018590000000     0.850110000000     0.0456465  
H3       H      0.253910000000     0.084280000000     0.850340000000     0.0462918  
H4       H      0.340630000000     0.056770000000     0.850090000000     0.0456367  
H5       H      0.070670000000     0.267650000000     0.825850000000     0.0462925  
H6       H      0.043030000000     0.354250000000     0.826220000000     0.0456401  
H7       H      0.477320000000     0.307700000000     0.825970000000     0.0463217  
H8       H      0.504960000000     0.221100000000     0.826130000000     0.0456333  
H9       H      0.232330000000     0.365650000000     0.952160000000     0.0454916  
H10      H      0.131790000000     0.366240000000     0.981660000000     0.0453874  
H11      H      0.143860000000     0.365330000000     0.057370000000     0.0455135  
H12      H      0.245340000000     0.366630000000     0.027880000000     0.0453882  
H13      H      0.196360000000     0.417870000000     0.618890000000     0.0455019  
H14      H      0.195220000000     0.316530000000     0.648290000000     0.0454057  
H15      H      0.196200000000     0.329520000000     0.724030000000     0.0454743  
H16      H      0.195440000000     0.429920000000     0.694620000000     0.0454215  
H17      H      0.232260000000     0.417860000000     0.390780000000     0.0454784  
H18      H      0.131770000000     0.316600000000     0.361180000000     0.0454106  
H19      H      0.143850000000     0.329590000000     0.285470000000     0.0454834  
H20      H      0.245290000000     0.429910000000     0.315080000000     0.0454001  
H21      H      0.207240000000     0.490760000000     0.159380000000     0.0463256  
H22      H      0.321690000000     0.518830000000     0.159630000000     0.0456298  
H23      H      0.340680000000     0.084450000000     0.159340000000     0.0463035  
H24      H      0.226230000000     0.056380000000     0.159610000000     0.0455887  
H25      H      0.340680000000     0.307560000000     0.183640000000     0.0463083  
H26      H      0.226220000000     0.221060000000     0.183270000000     0.0456054  
H27      H      0.207240000000     0.267660000000     0.183520000000     0.0463267  
H28      H      0.321690000000     0.354170000000     0.183370000000     0.0456313  
H29      H      0.404110000000     0.209960000000     0.057400000000     0.0454738  
H30      H      0.302590000000     0.208580000000     0.027900000000     0.0454061  
H31      H      0.315640000000     0.209640000000     0.952180000000     0.0454801  
H32      H      0.416210000000     0.209130000000     0.981680000000     0.0454218  
H33      H      0.351620000000     0.157420000000     0.618840000000     0.0454899  
H34      H      0.352790000000     0.258780000000     0.648370000000     0.045432   
H35      H      0.351800000000     0.245800000000     0.724080000000     0.0454482  
H36      H      0.352520000000     0.145380000000     0.694560000000     0.0454012  
H37      H      0.477200000000     0.220930000000     0.516900000000     0.0463098  
H38      H      0.505120000000     0.335270000000     0.516730000000     0.045624   
H39      H      0.070800000000     0.354340000000     0.516960000000     0.0463333  
H40      H      0.042880000000     0.240000000000     0.516620000000     0.0456274  
H41      H      0.294050000000     0.354340000000     0.492620000000     0.0463307  
H42      H      0.207380000000     0.240000000000     0.492810000000     0.0456252  
H43      H      0.253940000000     0.220920000000     0.492580000000     0.0463163  
H44      H      0.340610000000     0.335270000000     0.492910000000     0.0456261  
H45      H      0.416200000000     0.258640000000     0.361250000000     0.0454035  
H46      H      0.315690000000     0.157400000000     0.390730000000     0.0454816  
H47      H      0.302650000000     0.145350000000     0.315000000000     0.0454077  
H48      H      0.404100000000     0.245640000000     0.285530000000     0.0455026  
H49      H      0.294100000000     0.991080000000     0.850380000000     0.0463955  
H50      H      0.207380000000     0.518590000000     0.850110000000     0.045658   
H51      H      0.253910000000     0.584280000000     0.850340000000     0.0463042  
H52      H      0.340630000000     0.556770000000     0.850090000000     0.0456609  
H53      H      0.070670000000     0.767650000000     0.825850000000     0.0462869  
H54      H      0.043030000000     0.854250000000     0.826220000000     0.0456601  
H55      H      0.477320000000     0.807700000000     0.825970000000     0.0463246  
H56      H      0.504960000000     0.721100000000     0.826130000000     0.045637   
H57      H      0.232330000000     0.865650000000     0.952160000000     0.0454885  
H58      H      0.131790000000     0.866230000000     0.981660000000     0.045391   
H59      H      0.143860000000     0.865330000000     0.057370000000     0.0455168  
H60      H      0.245340000000     0.866630000000     0.027880000000     0.0454025  
H61      H      0.196360000000     0.917870000000     0.618890000000     0.0455069  
H62      H      0.195230000000     0.816530000000     0.648290000000     0.0454027  
H63      H      0.196200000000     0.829520000000     0.724030000000     0.0454793  
H64      H      0.195440000000     0.929920000000     0.694620000000     0.0454334  
H65      H      0.232270000000     0.917870000000     0.390780000000     0.0454843  
H66      H      0.131780000000     0.816600000000     0.361180000000     0.0454244  
H67      H      0.143850000000     0.829600000000     0.285480000000     0.0454803  
H68      H      0.245290000000     0.929920000000     0.315080000000     0.045402   
H69      H      0.207240000000     0.990760000000     0.159380000000     0.0464163  
H70      H      0.321690000000     0.018840000000     0.159630000000     0.0456163  
H71      H      0.340680000000     0.584450000000     0.159340000000     0.046319   
H72      H      0.226230000000     0.556380000000     0.159610000000     0.0456201  
H73      H      0.340680000000     0.807560000000     0.183640000000     0.0463096  
H74      H      0.226220000000     0.721060000000     0.183270000000     0.0456094  
H75      H      0.207240000000     0.767670000000     0.183520000000     0.0463417  
H76      H      0.321690000000     0.854170000000     0.183370000000     0.045637   
H77      H      0.404110000000     0.709970000000     0.057400000000     0.0454757  
H78      H      0.302590000000     0.708590000000     0.027900000000     0.0453906  
H79      H      0.315640000000     0.709640000000     0.952180000000     0.0454863  
H80      H      0.416210000000     0.709120000000     0.981680000000     0.0454237  
H81      H      0.351620000000     0.657420000000     0.618840000000     0.045492   
H82      H      0.352790000000     0.758780000000     0.648370000000     0.0453993  
H83      H      0.351800000000     0.745800000000     0.724080000000     0.0454909  
H84      H      0.352520000000     0.645380000000     0.694560000000     0.0454113  
H85      H      0.477200000000     0.720930000000     0.516910000000     0.0463302  
H86      H      0.505120000000     0.835270000000     0.516730000000     0.0456394  
H87      H      0.070800000000     0.854350000000     0.516960000000     0.0463079  
H88      H      0.042880000000     0.740000000000     0.516620000000     0.0456398  
H89      H      0.294060000000     0.854350000000     0.492630000000     0.0463229  
H90      H      0.207380000000     0.740000000000     0.492810000000     0.0456288  
H91      H      0.253950000000     0.720930000000     0.492580000000     0.046325   
H92      H      0.340620000000     0.835270000000     0.492910000000     0.0456325  
H93      H      0.416200000000     0.758640000000     0.361250000000     0.045407   
H94      H      0.315690000000     0.657400000000     0.390730000000     0.0454875  
H95      H      0.302650000000     0.645350000000     0.315000000000     0.0454101  
H96      H      0.404100000000     0.745640000000     0.285530000000     0.0454992  
H97      H      0.794100000000     0.491080000000     0.850380000000     0.0463209  
H98      H      0.707380000000     0.018590000000     0.850110000000     0.0456554  
H99      H      0.753910000000     0.084280000000     0.850340000000     0.0462917  
H100     H      0.840630000000     0.056770000000     0.850090000000     0.0456346  
H101     H      0.570670000000     0.267650000000     0.825850000000     0.0462994  
H102     H      0.543030000000     0.354250000000     0.826220000000     0.0456368  
H103     H      0.977320000000     0.307700000000     0.825970000000     0.0463161  
H104     H      0.004960000000     0.221100000000     0.826130000000     0.0456247  
H105     H      0.732330000000     0.365650000000     0.952160000000     0.0454607  
H106     H      0.631790000000     0.366230000000     0.981660000000     0.0453922  
H107     H      0.643860000000     0.365330000000     0.057370000000     0.0455194  
H108     H      0.745340000000     0.366630000000     0.027880000000     0.0454033  
H109     H      0.696360000000     0.417870000000     0.618890000000     0.0455095  
H110     H      0.695220000000     0.316530000000     0.648290000000     0.0454087  
H111     H      0.696200000000     0.329520000000     0.724030000000     0.0454761  
H112     H      0.695440000000     0.429920000000     0.694620000000     0.0454124  
H113     H      0.732260000000     0.417860000000     0.390780000000     0.0454798  
H114     H      0.631770000000     0.316600000000     0.361180000000     0.0454136  
H115     H      0.643850000000     0.329590000000     0.285470000000     0.045489   
H116     H      0.745280000000     0.429910000000     0.315080000000     0.045404   
H117     H      0.707240000000     0.490760000000     0.159380000000     0.0463286  
H118     H      0.821690000000     0.518830000000     0.159630000000     0.0456326  
H119     H      0.840680000000     0.084450000000     0.159340000000     0.0463054  
H120     H      0.726230000000     0.056380000000     0.159610000000     0.0455907  
H121     H      0.840680000000     0.307560000000     0.183640000000     0.0463122  
H122     H      0.726220000000     0.221060000000     0.183270000000     0.0456076  
H123     H      0.707240000000     0.267660000000     0.183520000000     0.0463297  
H124     H      0.821690000000     0.354170000000     0.183370000000     0.0456341  
H125     H      0.904110000000     0.209960000000     0.057400000000     0.0454709  
H126     H      0.802590000000     0.208580000000     0.027900000000     0.0453986  
H127     H      0.815640000000     0.209640000000     0.952180000000     0.0454837  
H128     H      0.916210000000     0.209130000000     0.981680000000     0.0454288  
H129     H      0.851620000000     0.157420000000     0.618840000000     0.0454882  
H130     H      0.852790000000     0.258780000000     0.648370000000     0.0454383  
H131     H      0.851800000000     0.245800000000     0.724080000000     0.0454415  
H132     H      0.852520000000     0.145380000000     0.694560000000     0.0454122  
H133     H      0.977200000000     0.220920000000     0.516910000000     0.04629    
H134     H      0.005120000000     0.335270000000     0.516730000000     0.0456103  
H135     H      0.570800000000     0.354340000000     0.516960000000     0.0463152  
H136     H      0.542880000000     0.240000000000     0.516620000000     0.0456209  
H137     H      0.794050000000     0.354340000000     0.492620000000     0.0463322  
H138     H      0.707380000000     0.240000000000     0.492810000000     0.0456283  
H139     H      0.753940000000     0.220920000000     0.492580000000     0.0463182  
H140     H      0.840610000000     0.335270000000     0.492910000000     0.0456295  
H141     H      0.916200000000     0.258640000000     0.361250000000     0.0454105  
H142     H      0.815690000000     0.157400000000     0.390730000000     0.0454839  
H143     H      0.802650000000     0.145350000000     0.315000000000     0.0454041  
H144     H      0.904100000000     0.245640000000     0.285530000000     0.0455036  
H145     H      0.794100000000     0.991080000000     0.850380000000     0.0464086  
H146     H      0.707380000000     0.518590000000     0.850110000000     0.0456615  
H147     H      0.753910000000     0.584280000000     0.850340000000     0.0463073  
H148     H      0.840630000000     0.556770000000     0.850090000000     0.0456673  
H149     H      0.570670000000     0.767650000000     0.825850000000     0.0463023  
H150     H      0.543030000000     0.854250000000     0.826220000000     0.0456411  
H151     H      0.977320000000     0.807700000000     0.825970000000     0.0463134  
H152     H      0.004960000000     0.721100000000     0.826130000000     0.0456339  
H153     H      0.732330000000     0.865650000000     0.952160000000     0.0454901  
H154     H      0.631790000000     0.866230000000     0.981660000000     0.0453963  
H155     H      0.643860000000     0.865330000000     0.057370000000     0.0455214  
H156     H      0.745340000000     0.866630000000     0.027880000000     0.0454038  
H157     H      0.696360000000     0.917870000000     0.618890000000     0.0455154  
H158     H      0.695230000000     0.816530000000     0.648290000000     0.0454057  
H159     H      0.696200000000     0.829520000000     0.724030000000     0.045481   
H160     H      0.695440000000     0.929920000000     0.694620000000     0.0454246  
H161     H      0.732270000000     0.917870000000     0.390780000000     0.0454809  
H162     H      0.631780000000     0.816600000000     0.361180000000     0.0454276  
H163     H      0.643850000000     0.829600000000     0.285480000000     0.0454824  
H164     H      0.745290000000     0.929920000000     0.315080000000     0.0453991  
H165     H      0.707240000000     0.990760000000     0.159380000000     0.0464189  
H166     H      0.821690000000     0.018840000000     0.159630000000     0.0456185  
H167     H      0.840680000000     0.584450000000     0.159340000000     0.0463223  
H168     H      0.726230000000     0.556380000000     0.159610000000     0.0456227  
H169     H      0.840680000000     0.807560000000     0.183640000000     0.0463122  
H170     H      0.726220000000     0.721060000000     0.183270000000     0.0456121  
H171     H      0.707240000000     0.767670000000     0.183520000000     0.0463458  
H172     H      0.821690000000     0.854170000000     0.183370000000     0.0456393  
H173     H      0.904110000000     0.709970000000     0.057400000000     0.0454807  
H174     H      0.802590000000     0.708590000000     0.027900000000     0.0453922  
H175     H      0.815640000000     0.709640000000     0.952180000000     0.0454877  
H176     H      0.916210000000     0.709120000000     0.981680000000     0.0454297  
H177     H      0.851620000000     0.657420000000     0.618840000000     0.0454964  
H178     H      0.852790000000     0.758780000000     0.648370000000     0.0454059  
H179     H      0.851810000000     0.745800000000     0.724080000000     0.0454985  
H180     H      0.852520000000     0.645380000000     0.694560000000     0.0454138  
H181     H      0.977200000000     0.720930000000     0.516910000000     0.0463208  
H182     H      0.005120000000     0.835270000000     0.516730000000     0.045625   
H183     H      0.570800000000     0.854350000000     0.516960000000     0.0462909  
H184     H      0.542880000000     0.740000000000     0.516620000000     0.0456348  
H185     H      0.794060000000     0.854350000000     0.492630000000     0.0463242  
H186     H      0.707380000000     0.740000000000     0.492810000000     0.0456309  
H187     H      0.753950000000     0.720930000000     0.492580000000     0.0463276  
H188     H      0.840620000000     0.835270000000     0.492910000000     0.0456343  
H189     H      0.916200000000     0.758640000000     0.361250000000     0.0454161  
H190     H      0.815690000000     0.657400000000     0.390730000000     0.0454855  
H191     H      0.802650000000     0.645350000000     0.315000000000     0.0454205  
H192     H      0.904100000000     0.745640000000     0.285530000000     0.0454946  
In1      In     0.376290000000     0.242330000000     0.504810000000     2.48649    
In2      In     0.319100000000     0.185210000000     0.171450000000     2.48639    
In3      In     0.171700000000     0.332940000000     0.504760000000     2.48656    
In4      In     0.228820000000     0.390020000000     0.171470000000     2.48636    
In5      In     0.171770000000     0.389960000000     0.838130000000     2.48665    
In6      In     0.376230000000     0.185390000000     0.838120000000     2.48679    
In7      In     0.376290000000     0.742330000000     0.504810000000     2.48657    
In8      In     0.319100000000     0.685210000000     0.171450000000     2.4867     
In9      In     0.171700000000     0.832940000000     0.504760000000     2.48651    
In10     In     0.228830000000     0.890020000000     0.171470000000     2.48623    
In11     In     0.171770000000     0.889960000000     0.838130000000     2.48656    
In12     In     0.376230000000     0.685390000000     0.838120000000     2.4868     
In13     In     0.876290000000     0.242330000000     0.504810000000     2.48649    
In14     In     0.819100000000     0.185210000000     0.171450000000     2.48665    
In15     In     0.671700000000     0.332940000000     0.504760000000     2.48647    
In16     In     0.728820000000     0.390020000000     0.171470000000     2.48636    
In17     In     0.671770000000     0.389960000000     0.838130000000     2.48657    
In18     In     0.876230000000     0.185390000000     0.838120000000     2.4868     
In19     In     0.876290000000     0.742330000000     0.504810000000     2.48639    
In20     In     0.819100000000     0.685210000000     0.171450000000     2.4867     
In21     In     0.671700000000     0.832940000000     0.504760000000     2.48655    
In22     In     0.728830000000     0.890020000000     0.171470000000     2.48638    
In23     In     0.671770000000     0.889960000000     0.838130000000     2.48637    
In24     In     0.876230000000     0.685390000000     0.838120000000     2.4868     
N1       N      0.247180000000     0.499890000000     0.849710000000    -0.173088   
N2       N      0.300820000000     0.075470000000     0.849680000000    -0.173133   
N3       N      0.061790000000     0.314500000000     0.826560000000    -0.173112   
N4       N      0.486200000000     0.260840000000     0.826580000000    -0.173076   
N5       N      0.181770000000     0.367100000000     0.961370000000    -0.173806   
N6       N      0.196050000000     0.367140000000     0.048170000000    -0.173821   
N7       N      0.194620000000     0.365750000000     0.628050000000    -0.173862   
N8       N      0.194660000000     0.380010000000     0.714870000000    -0.17386    
N9       N      0.181730000000     0.365780000000     0.381520000000    -0.17385    
N10      N      0.196020000000     0.380040000000     0.294730000000    -0.173848   
N11      N      0.263090000000     0.499860000000     0.160030000000    -0.173061   
N12      N      0.284830000000     0.075360000000     0.159990000000    -0.17308    
N13      N      0.284830000000     0.260750000000     0.182930000000    -0.173076   
N14      N      0.263090000000     0.314480000000     0.182920000000    -0.173022   
N15      N      0.351900000000     0.208100000000     0.048190000000    -0.173789   
N16      N      0.366220000000     0.208230000000     0.961390000000    -0.173864   
N17      N      0.353380000000     0.209550000000     0.628070000000    -0.173793   
N18      N      0.353330000000     0.195300000000     0.714860000000    -0.173895   
N19      N      0.486220000000     0.276720000000     0.516290000000    -0.173121   
N20      N      0.061780000000     0.298550000000     0.516270000000    -0.1731     
N21      N      0.247160000000     0.298550000000     0.493240000000    -0.173094   
N22      N      0.300840000000     0.276720000000     0.493280000000    -0.173079   
N23      N      0.366240000000     0.209470000000     0.381530000000    -0.173842   
N24      N      0.351920000000     0.195210000000     0.294730000000    -0.173817   
N25      N      0.247180000000     0.999890000000     0.849720000000    -0.173073   
N26      N      0.300820000000     0.575470000000     0.849680000000    -0.173138   
N27      N      0.061800000000     0.814500000000     0.826560000000    -0.173159   
N28      N      0.486200000000     0.760840000000     0.826580000000    -0.173076   
N29      N      0.181770000000     0.867100000000     0.961370000000    -0.173807   
N30      N      0.196050000000     0.867140000000     0.048170000000    -0.173808   
N31      N      0.194620000000     0.865750000000     0.628050000000    -0.173865   
N32      N      0.194660000000     0.880010000000     0.714870000000    -0.173842   
N33      N      0.181730000000     0.865780000000     0.381520000000    -0.17379    
N34      N      0.196020000000     0.880040000000     0.294730000000    -0.173864   
N35      N      0.263090000000     0.999860000000     0.160020000000    -0.172955   
N36      N      0.284830000000     0.575360000000     0.159990000000    -0.173059   
N37      N      0.284830000000     0.760750000000     0.182930000000    -0.173077   
N38      N      0.263090000000     0.814480000000     0.182920000000    -0.173019   
N39      N      0.351900000000     0.708100000000     0.048190000000    -0.173863   
N40      N      0.366220000000     0.708230000000     0.961390000000    -0.173862   
N41      N      0.353380000000     0.709550000000     0.628070000000    -0.173837   
N42      N      0.353330000000     0.695300000000     0.714860000000    -0.173853   
N43      N      0.486220000000     0.776720000000     0.516290000000    -0.173097   
N44      N      0.061780000000     0.798560000000     0.516270000000    -0.173066   
N45      N      0.247160000000     0.798550000000     0.493240000000    -0.173098   
N46      N      0.300840000000     0.776720000000     0.493280000000    -0.17313    
N47      N      0.366240000000     0.709470000000     0.381530000000    -0.17384    
N48      N      0.351920000000     0.695210000000     0.294730000000    -0.173839   
N49      N      0.747180000000     0.499890000000     0.849710000000    -0.173089   
N50      N      0.800820000000     0.075470000000     0.849680000000    -0.173155   
N51      N      0.561790000000     0.314500000000     0.826560000000    -0.173117   
N52      N      0.986200000000     0.260840000000     0.826580000000    -0.173057   
N53      N      0.681770000000     0.367100000000     0.961370000000    -0.173837   
N54      N      0.696050000000     0.367140000000     0.048170000000    -0.173811   
N55      N      0.694620000000     0.365750000000     0.628050000000    -0.173858   
N56      N      0.694660000000     0.380010000000     0.714870000000    -0.173872   
N57      N      0.681730000000     0.365780000000     0.381520000000    -0.173869   
N58      N      0.696020000000     0.380040000000     0.294730000000    -0.173843   
N59      N      0.763090000000     0.499860000000     0.160030000000    -0.17306    
N60      N      0.784830000000     0.075360000000     0.159990000000    -0.173081   
N61      N      0.784830000000     0.260750000000     0.182930000000    -0.173076   
N62      N      0.763090000000     0.314480000000     0.182920000000    -0.173021   
N63      N      0.851900000000     0.208100000000     0.048190000000    -0.173856   
N64      N      0.866220000000     0.208230000000     0.961390000000    -0.17386    
N65      N      0.853380000000     0.209550000000     0.628070000000    -0.173793   
N66      N      0.853320000000     0.195300000000     0.714860000000    -0.173878   
N67      N      0.986220000000     0.276720000000     0.516290000000    -0.17311    
N68      N      0.561780000000     0.298550000000     0.516270000000    -0.173129   
N69      N      0.747160000000     0.298550000000     0.493240000000    -0.173093   
N70      N      0.800840000000     0.276720000000     0.493280000000    -0.173079   
N71      N      0.866240000000     0.209470000000     0.381530000000    -0.173839   
N72      N      0.851920000000     0.195210000000     0.294730000000    -0.173858   
N73      N      0.747180000000     0.999890000000     0.849720000000    -0.173006   
N74      N      0.800820000000     0.575470000000     0.849680000000    -0.173117   
N75      N      0.561790000000     0.814500000000     0.826560000000    -0.173116   
N76      N      0.986200000000     0.760840000000     0.826580000000    -0.173057   
N77      N      0.681770000000     0.867100000000     0.961370000000    -0.173805   
N78      N      0.696050000000     0.867140000000     0.048170000000    -0.173808   
N79      N      0.694620000000     0.865750000000     0.628050000000    -0.17386    
N80      N      0.694660000000     0.880010000000     0.714870000000    -0.173854   
N81      N      0.681730000000     0.865780000000     0.381520000000    -0.173836   
N82      N      0.696020000000     0.880040000000     0.294730000000    -0.173902   
N83      N      0.763090000000     0.999860000000     0.160020000000    -0.172955   
N84      N      0.784830000000     0.575360000000     0.159990000000    -0.173059   
N85      N      0.784830000000     0.760750000000     0.182930000000    -0.173077   
N86      N      0.763090000000     0.814480000000     0.182920000000    -0.173019   
N87      N      0.851900000000     0.708100000000     0.048190000000    -0.173862   
N88      N      0.866220000000     0.708230000000     0.961390000000    -0.173862   
N89      N      0.853380000000     0.709550000000     0.628070000000    -0.173819   
N90      N      0.853330000000     0.695300000000     0.714860000000    -0.173851   
N91      N      0.986220000000     0.776720000000     0.516290000000    -0.173109   
N92      N      0.561780000000     0.798560000000     0.516270000000    -0.173093   
N93      N      0.747160000000     0.798550000000     0.493240000000    -0.173098   
N94      N      0.800840000000     0.776720000000     0.493280000000    -0.173129   
N95      N      0.866240000000     0.709470000000     0.381530000000    -0.173839   
N96      N      0.851930000000     0.695210000000     0.294730000000    -0.173822   
O1       O      0.317760000000     0.231570000000     0.496610000000    -0.51367    
O2       O      0.361890000000     0.288680000000     0.498830000000    -0.493164   
O3       O      0.356280000000     0.197130000000     0.556180000000    -0.493819   
O4       O      0.350960000000     0.197100000000     0.453420000000    -0.493962   
O5       O      0.437150000000     0.288680000000     0.510810000000    -0.493045   
O6       O      0.393230000000     0.252390000000     0.435670000000    -0.516128   
O7       O      0.369460000000     0.252450000000     0.573960000000    -0.516022   
O8       O      0.424050000000     0.231570000000     0.512980000000    -0.513504   
O9       O      0.329940000000     0.137520000000     0.163270000000    -0.513374   
O10      O      0.272770000000     0.124350000000     0.165470000000    -0.492964   
O11      O      0.364340000000     0.210480000000     0.222840000000    -0.493746   
O12      O      0.364320000000     0.205240000000     0.120080000000    -0.493955   
O13      O      0.272770000000     0.199690000000     0.177410000000    -0.492962   
O14      O      0.308940000000     0.191950000000     0.102300000000    -0.515936   
O15      O      0.308970000000     0.168320000000     0.240590000000    -0.516105   
O16      O      0.329940000000     0.243740000000     0.179650000000    -0.51352    
O17      O      0.123950000000     0.343700000000     0.512960000000    -0.513676   
O18      O      0.110840000000     0.286590000000     0.510710000000    -0.493147   
O19      O      0.197020000000     0.378160000000     0.453430000000    -0.49395    
O20      O      0.191720000000     0.378150000000     0.556180000000    -0.494027   
O21      O      0.186110000000     0.286590000000     0.498730000000    -0.493134   
O22      O      0.178540000000     0.322840000000     0.573890000000    -0.516096   
O23      O      0.154760000000     0.322860000000     0.435600000000    -0.515962   
O24      O      0.230240000000     0.343700000000     0.496590000000    -0.513548   
O25      O      0.217980000000     0.437700000000     0.163330000000    -0.513509   
O26      O      0.275150000000     0.450880000000     0.165520000000    -0.492993   
O27      O      0.238960000000     0.406940000000     0.240630000000    -0.516133   
O28      O      0.238980000000     0.383250000000     0.102320000000    -0.516015   
O29      O      0.275150000000     0.375540000000     0.177460000000    -0.492917   
O30      O      0.183610000000     0.369990000000     0.120060000000    -0.49402    
O31      O      0.183600000000     0.364760000000     0.222830000000    -0.494056   
O32      O      0.217980000000     0.331480000000     0.179590000000    -0.513324   
O33      O      0.230290000000     0.437810000000     0.846370000000    -0.513763   
O34      O      0.186140000000     0.450710000000     0.844170000000    -0.493162   
O35      O      0.191710000000     0.364690000000     0.786740000000    -0.493868   
O36      O      0.197090000000     0.370070000000     0.889470000000    -0.493938   
O37      O      0.110960000000     0.375530000000     0.832130000000    -0.493115   
O38      O      0.154800000000     0.383020000000     0.907270000000    -0.515961   
O39      O      0.178690000000     0.406920000000     0.769010000000    -0.516093   
O40      O      0.123920000000     0.331440000000     0.829880000000    -0.51352    
O41      O      0.317710000000     0.137540000000     0.846320000000    -0.513627   
O42      O      0.361860000000     0.124640000000     0.844130000000    -0.49323    
O43      O      0.356290000000     0.210640000000     0.786760000000    -0.493961   
O44      O      0.350910000000     0.205270000000     0.889490000000    -0.494177   
O45      O      0.437040000000     0.199820000000     0.832100000000    -0.493039   
O46      O      0.393220000000     0.192360000000     0.907260000000    -0.516148   
O47      O      0.369280000000     0.168390000000     0.768980000000    -0.516097   
O48      O      0.424070000000     0.243910000000     0.829940000000    -0.513498   
O49      O      0.317760000000     0.731570000000     0.496610000000    -0.513574   
O50      O      0.361890000000     0.788680000000     0.498830000000    -0.493186   
O51      O      0.356280000000     0.697130000000     0.556180000000    -0.493844   
O52      O      0.350960000000     0.697100000000     0.453420000000    -0.493969   
O53      O      0.437150000000     0.788680000000     0.510810000000    -0.493039   
O54      O      0.393230000000     0.752390000000     0.435670000000    -0.516135   
O55      O      0.369470000000     0.752450000000     0.573960000000    -0.516111   
O56      O      0.424050000000     0.731570000000     0.512980000000    -0.513501   
O57      O      0.329940000000     0.637520000000     0.163270000000    -0.513391   
O58      O      0.272770000000     0.624350000000     0.165470000000    -0.492982   
O59      O      0.364340000000     0.710470000000     0.222840000000    -0.493808   
O60      O      0.364320000000     0.705240000000     0.120080000000    -0.494045   
O61      O      0.272770000000     0.699690000000     0.177410000000    -0.492978   
O62      O      0.308950000000     0.691950000000     0.102310000000    -0.516278   
O63      O      0.308970000000     0.668320000000     0.240590000000    -0.516183   
O64      O      0.329940000000     0.743740000000     0.179650000000    -0.513551   
O65      O      0.123950000000     0.843700000000     0.512960000000    -0.513613   
O66      O      0.110850000000     0.786590000000     0.510710000000    -0.493115   
O67      O      0.197030000000     0.878170000000     0.453430000000    -0.493701   
O68      O      0.191720000000     0.878150000000     0.556180000000    -0.494024   
O69      O      0.186110000000     0.786590000000     0.498730000000    -0.493115   
O70      O      0.178540000000     0.822840000000     0.573890000000    -0.516078   
O71      O      0.154760000000     0.822860000000     0.435600000000    -0.515888   
O72      O      0.230240000000     0.843700000000     0.496590000000    -0.513546   
O73      O      0.217980000000     0.937700000000     0.163330000000    -0.513363   
O74      O      0.275150000000     0.950880000000     0.165520000000    -0.493014   
O75      O      0.238960000000     0.906940000000     0.240630000000    -0.516064   
O76      O      0.238980000000     0.883250000000     0.102320000000    -0.516045   
O77      O      0.275150000000     0.875540000000     0.177460000000    -0.493065   
O78      O      0.183610000000     0.869990000000     0.120060000000    -0.493896   
O79      O      0.183590000000     0.864760000000     0.222830000000    -0.493697   
O80      O      0.217980000000     0.831480000000     0.179590000000    -0.513383   
O81      O      0.230290000000     0.937810000000     0.846370000000    -0.513685   
O82      O      0.186150000000     0.950720000000     0.844170000000    -0.493155   
O83      O      0.191710000000     0.864690000000     0.786740000000    -0.493787   
O84      O      0.197090000000     0.870070000000     0.889470000000    -0.493932   
O85      O      0.110960000000     0.875530000000     0.832130000000    -0.493133   
O86      O      0.154800000000     0.883020000000     0.907270000000    -0.515956   
O87      O      0.178690000000     0.906920000000     0.769010000000    -0.51618    
O88      O      0.123920000000     0.831440000000     0.829880000000    -0.513527   
O89      O      0.317710000000     0.637540000000     0.846320000000    -0.513701   
O90      O      0.361860000000     0.624640000000     0.844130000000    -0.493129   
O91      O      0.356290000000     0.710640000000     0.786760000000    -0.493954   
O92      O      0.350910000000     0.705270000000     0.889490000000    -0.494173   
O93      O      0.437040000000     0.699820000000     0.832100000000    -0.493039   
O94      O      0.393220000000     0.692360000000     0.907260000000    -0.516148   
O95      O      0.369280000000     0.668390000000     0.768980000000    -0.516093   
O96      O      0.424070000000     0.743910000000     0.829940000000    -0.513498   
O97      O      0.817760000000     0.231570000000     0.496610000000    -0.513669   
O98      O      0.861890000000     0.288680000000     0.498830000000    -0.49316    
O99      O      0.856280000000     0.197130000000     0.556180000000    -0.493817   
O100     O      0.850960000000     0.197100000000     0.453420000000    -0.493961   
O101     O      0.937150000000     0.288680000000     0.510810000000    -0.493033   
O102     O      0.893230000000     0.252390000000     0.435670000000    -0.516124   
O103     O      0.869460000000     0.252450000000     0.573960000000    -0.516019   
O104     O      0.924050000000     0.231570000000     0.512980000000    -0.513502   
O105     O      0.829940000000     0.137520000000     0.163270000000    -0.513394   
O106     O      0.772770000000     0.124350000000     0.165470000000    -0.492984   
O107     O      0.864330000000     0.210480000000     0.222840000000    -0.493944   
O108     O      0.864320000000     0.205240000000     0.120080000000    -0.494051   
O109     O      0.772770000000     0.199690000000     0.177410000000    -0.492984   
O110     O      0.808950000000     0.191950000000     0.102300000000    -0.516187   
O111     O      0.808970000000     0.168320000000     0.240590000000    -0.516168   
O112     O      0.829940000000     0.243740000000     0.179650000000    -0.513523   
O113     O      0.623950000000     0.343700000000     0.512960000000    -0.513673   
O114     O      0.610840000000     0.286590000000     0.510710000000    -0.493133   
O115     O      0.697020000000     0.378160000000     0.453420000000    -0.49395    
O116     O      0.691720000000     0.378150000000     0.556180000000    -0.494026   
O117     O      0.686110000000     0.286590000000     0.498730000000    -0.493121   
O118     O      0.678540000000     0.322840000000     0.573890000000    -0.516084   
O119     O      0.654760000000     0.322860000000     0.435600000000    -0.515989   
O120     O      0.730240000000     0.343700000000     0.496590000000    -0.513545   
O121     O      0.717980000000     0.437700000000     0.163330000000    -0.513507   
O122     O      0.775150000000     0.450880000000     0.165520000000    -0.492992   
O123     O      0.738960000000     0.406940000000     0.240630000000    -0.51613    
O124     O      0.738980000000     0.383250000000     0.102320000000    -0.516013   
O125     O      0.775150000000     0.375540000000     0.177460000000    -0.492915   
O126     O      0.683610000000     0.369990000000     0.120060000000    -0.494015   
O127     O      0.683600000000     0.364760000000     0.222830000000    -0.494052   
O128     O      0.717980000000     0.331480000000     0.179590000000    -0.513322   
O129     O      0.730300000000     0.437810000000     0.846370000000    -0.513574   
O130     O      0.686150000000     0.450710000000     0.844170000000    -0.493312   
O131     O      0.691710000000     0.364690000000     0.786740000000    -0.493861   
O132     O      0.697090000000     0.370070000000     0.889470000000    -0.493938   
O133     O      0.610960000000     0.375530000000     0.832130000000    -0.493105   
O134     O      0.654800000000     0.383020000000     0.907270000000    -0.515952   
O135     O      0.678690000000     0.406920000000     0.769010000000    -0.516085   
O136     O      0.623920000000     0.331440000000     0.829880000000    -0.513508   
O137     O      0.817710000000     0.137540000000     0.846320000000    -0.513704   
O138     O      0.861860000000     0.124640000000     0.844130000000    -0.493132   
O139     O      0.856290000000     0.210640000000     0.786760000000    -0.493949   
O140     O      0.850910000000     0.205270000000     0.889490000000    -0.494173   
O141     O      0.937040000000     0.199820000000     0.832100000000    -0.493031   
O142     O      0.893220000000     0.192360000000     0.907260000000    -0.516146   
O143     O      0.869280000000     0.168390000000     0.768980000000    -0.516093   
O144     O      0.924070000000     0.243910000000     0.829940000000    -0.513497   
O145     O      0.817760000000     0.731570000000     0.496610000000    -0.513548   
O146     O      0.861890000000     0.788680000000     0.498830000000    -0.493177   
O147     O      0.856280000000     0.697130000000     0.556180000000    -0.493804   
O148     O      0.850960000000     0.697100000000     0.453420000000    -0.493947   
O149     O      0.937160000000     0.788680000000     0.510810000000    -0.493042   
O150     O      0.893230000000     0.752390000000     0.435670000000    -0.51612    
O151     O      0.869460000000     0.752450000000     0.573960000000    -0.516019   
O152     O      0.924050000000     0.731570000000     0.512980000000    -0.513541   
O153     O      0.829940000000     0.637520000000     0.163270000000    -0.513388   
O154     O      0.772770000000     0.624350000000     0.165470000000    -0.49298    
O155     O      0.864340000000     0.710470000000     0.222840000000    -0.493795   
O156     O      0.864320000000     0.705240000000     0.120080000000    -0.494041   
O157     O      0.772770000000     0.699690000000     0.177410000000    -0.492977   
O158     O      0.808950000000     0.691950000000     0.102310000000    -0.516277   
O159     O      0.808970000000     0.668320000000     0.240590000000    -0.516178   
O160     O      0.829940000000     0.743740000000     0.179650000000    -0.513549   
O161     O      0.623950000000     0.843700000000     0.512960000000    -0.513609   
O162     O      0.610850000000     0.786590000000     0.510710000000    -0.493117   
O163     O      0.697030000000     0.878170000000     0.453430000000    -0.493762   
O164     O      0.691720000000     0.878150000000     0.556180000000    -0.494024   
O165     O      0.686110000000     0.786590000000     0.498730000000    -0.493123   
O166     O      0.678540000000     0.822840000000     0.573890000000    -0.516081   
O167     O      0.654760000000     0.822870000000     0.435600000000    -0.516034   
O168     O      0.730240000000     0.843700000000     0.496590000000    -0.513552   
O169     O      0.717980000000     0.937700000000     0.163330000000    -0.513377   
O170     O      0.775150000000     0.950880000000     0.165520000000    -0.493027   
O171     O      0.738960000000     0.906940000000     0.240630000000    -0.516115   
O172     O      0.738980000000     0.883250000000     0.102320000000    -0.51606    
O173     O      0.775150000000     0.875540000000     0.177460000000    -0.493075   
O174     O      0.683610000000     0.869990000000     0.120060000000    -0.493904   
O175     O      0.683600000000     0.864760000000     0.222830000000    -0.493885   
O176     O      0.717980000000     0.831480000000     0.179590000000    -0.513376   
O177     O      0.730300000000     0.937810000000     0.846370000000    -0.513408   
O178     O      0.686150000000     0.950720000000     0.844170000000    -0.493071   
O179     O      0.691710000000     0.864690000000     0.786740000000    -0.493772   
O180     O      0.697090000000     0.870070000000     0.889470000000    -0.49392    
O181     O      0.610960000000     0.875530000000     0.832130000000    -0.493089   
O182     O      0.654800000000     0.883020000000     0.907270000000    -0.515938   
O183     O      0.678690000000     0.906920000000     0.769010000000    -0.516166   
O184     O      0.623920000000     0.831440000000     0.829880000000    -0.513485   
O185     O      0.817710000000     0.637540000000     0.846320000000    -0.513621   
O186     O      0.861860000000     0.624640000000     0.844130000000    -0.49322    
O187     O      0.856290000000     0.710640000000     0.786760000000    -0.493953   
O188     O      0.850910000000     0.705270000000     0.889490000000    -0.494173   
O189     O      0.937040000000     0.699820000000     0.832100000000    -0.493023   
O190     O      0.893220000000     0.692360000000     0.907260000000    -0.516143   
O191     O      0.869280000000     0.668390000000     0.768980000000    -0.516088   
O192     O      0.924070000000     0.743910000000     0.829940000000    -0.513495   


