data_structure

_audit_creation_method RASPA-1.0
_audit_creation_date 2023-5-23
_audit_author_name 'Poobodin Mano'

_cell_length_a    39.0466
_cell_length_b    37.3379
_cell_length_c    35.4361
_cell_angle_alpha 89.9996
_cell_angle_beta  89.9998
_cell_angle_gamma 120.016
_cell_volume      44734.2

_symmetry_cell_setting          triclinic
_symmetry_space_group_name_Hall 'P 1'
_symmetry_space_group_name_H-M  'P 1'
_symmetry_Int_Tables_number     1

_symmetry_equiv_pos_as_xyz 'x,y,z'

loop_
_atom_site_label
_atom_site_type_symbol
_atom_site_fract_x
_atom_site_fract_y
_atom_site_fract_z
_atom_site_charge
C1       C      0.647550000000     0.470000000000     0.490630000000     0.32913    
C2       C      0.550850000000     0.343090000000     0.508790000000     0.419682   
C3       C      0.541050000000     0.445790000000     0.554510000000     0.405964   
C4       C      0.534940000000     0.431230000000     0.430820000000     0.421691   
C5       C      0.637730000000     0.505720000000     0.401270000000     0.329667   
C6       C      0.751950000000     0.593970000000     0.446680000000     0.418321   
C7       C      0.674520000000     0.626660000000     0.362410000000     0.408322   
C8       C      0.660380000000     0.612300000000     0.482960000000     0.405653   
C9       C      0.528400000000     0.603140000000     0.271320000000     0.328173   
C10      C      0.410830000000     0.515600000000     0.224610000000     0.411681   
C11      C      0.497820000000     0.498150000000     0.181950000000     0.405679   
C12      C      0.490630000000     0.483120000000     0.304190000000     0.409647   
C13      C      0.513550000000     0.637700000000     0.186450000000     0.324888   
C14      C      0.609520000000     0.764520000000     0.159280000000     0.416761   
C15      C      0.625990000000     0.674540000000     0.235760000000     0.42115    
C16      C      0.614280000000     0.663580000000     0.109340000000     0.409994   
C17      C      0.238700000000     0.606900000000     0.198620000000     0.331143   
C18      C      0.272250000000     0.513250000000     0.189990000000     0.406801   
C19      C      0.155880000000     0.495380000000     0.241830000000     0.406968   
C20      C      0.171760000000     0.492340000000     0.118920000000     0.416131   
C21      C      0.150340000000     0.603970000000     0.212830000000     0.340713   
C22      C      0.202960000000     0.731530000000     0.252140000000     0.410062   
C23      C      0.082890000000     0.654580000000     0.182580000000     0.411295   
C24      C      0.096640000000     0.652020000000     0.305140000000     0.409035   
C25      C      0.011140000000     0.504160000000     0.462660000000     0.339071   
C26      C      0.957780000000     0.376940000000     0.422570000000     0.410387   
C27      C      0.064380000000     0.455970000000     0.370030000000     0.409081   
C28      C      0.078020000000     0.453070000000     0.492660000000     0.411728   
C29      C      0.922820000000     0.500680000000     0.477100000000     0.331261   
C30      C      0.888860000000     0.594470000000     0.484810000000     0.407062   
C31      C      0.989090000000     0.615270000000     0.556360000000     0.416846   
C32      C      0.004810000000     0.612070000000     0.433160000000     0.407368   
C33      C      0.686190000000     0.214400000000     0.423270000000     0.332299   
C34      C      0.808120000000     0.242240000000     0.406210000000     0.407753   
C35      C      0.706720000000     0.125330000000     0.464480000000     0.408526   
C36      C      0.722320000000     0.141310000000     0.340170000000     0.409542   
C37      C      0.614730000000     0.140940000000     0.488910000000     0.324815   
C38      C      0.536040000000     0.188790000000     0.517400000000     0.407542   
C39      C      0.500050000000     0.065220000000     0.452780000000     0.405411   
C40      C      0.510210000000     0.080180000000     0.576290000000     0.412124   
C41      C      0.471890000000     0.888710000000     0.240090000000     0.331486   
C42      C      0.353320000000     0.865790000000     0.264090000000     0.40769    
C43      C      0.443680000000     0.967010000000     0.326170000000     0.415345   
C44      C      0.454970000000     0.981560000000     0.202700000000     0.406451   
C45      C      0.547540000000     0.968970000000     0.180460000000     0.3302     
C46      C      0.624940000000     0.919070000000     0.150580000000     0.407782   
C47      C      0.651140000000     0.027720000000     0.091550000000     0.411539   
C48      C      0.663490000000     0.043030000000     0.214420000000     0.408474   
C49      C      0.541740000000     0.060690000000     0.285840000000     0.0277225  
C50      C      0.549160000000     0.003250000000     0.301360000000     0.0250333  
C51      C      0.576960000000     0.013960000000     0.272510000000     0.0233612  
C52      C      0.569700000000     0.071530000000     0.257120000000     0.017338   
C53      C      0.469350000000     0.051610000000     0.392510000000     0.0314507  
C54      C      0.480720000000     0.001630000000     0.421590000000     0.0343374  
C55      C      0.466460000000     0.976760000000     0.389490000000     0.0328063  
C56      C      0.454860000000     0.026610000000     0.360470000000     0.035577   
C57      C      0.456310000000     0.031350000000     0.613490000000     0.0332418  
C58      C      0.521490000000     0.061340000000     0.636960000000     0.0372971  
C59      C      0.507500000000     0.036320000000     0.168920000000     0.0364679  
C60      C      0.442320000000     0.006190000000     0.145500000000     0.0348804  
C61      C      0.719020000000     0.102160000000     0.522660000000     0.0337321  
C62      C      0.654270000000     0.069870000000     0.497840000000     0.0381657  
C63      C      0.640170000000     0.045200000000     0.030070000000     0.037709   
C64      C      0.704960000000     0.077260000000     0.054800000000     0.0339631  
C65      C      0.703370000000     0.133620000000     0.275710000000     0.0288016  
C66      C      0.710400000000     0.081400000000     0.306040000000     0.0290888  
C67      C      0.694950000000     0.056200000000     0.274250000000     0.030887   
C68      C      0.687820000000     0.108400000000     0.243970000000     0.0341826  
C69      C      0.584810000000     0.103170000000     0.394740000000     0.0294591  
C70      C      0.621050000000     0.099780000000     0.342780000000     0.025061   
C71      C      0.622700000000     0.066970000000     0.359850000000     0.0218144  
C72      C      0.586510000000     0.070410000000     0.411880000000     0.0218839  
C73      C      0.892950000000     0.346330000000     0.397420000000     0.0330846  
C74      C      0.913050000000     0.304790000000     0.430000000000     0.0328423  
C75      C      0.875090000000     0.270580000000     0.425730000000     0.0325361  
C76      C      0.855130000000     0.312250000000     0.393180000000     0.0331647  
C77      C      0.050800000000     0.511020000000     0.555740000000     0.0218737  
C78      C      0.091090000000     0.572200000000     0.521060000000     0.0162562  
C79      C      0.064140000000     0.585670000000     0.527960000000     0.0217576  
C80      C      0.023820000000     0.524450000000     0.562590000000     0.0281182  
C81      C      0.052680000000     0.661760000000     0.344490000000     0.0333299  
C82      C      0.078150000000     0.619550000000     0.365080000000     0.0358487  
C83      C      0.055150000000     0.609730000000     0.397670000000     0.0323623  
C84      C      0.029310000000     0.651540000000     0.376930000000     0.0327731  
C85      C      0.071360000000     0.672620000000     0.121410000000     0.0311974  
C86      C      0.020110000000     0.615490000000     0.153410000000     0.0353328  
C87      C      0.996240000000     0.605600000000     0.621430000000     0.0350141  
C88      C      0.047460000000     0.662650000000     0.589320000000     0.0325598  
C89      C      0.267660000000     0.763100000000     0.277760000000     0.0330006  
C90      C      0.248020000000     0.803120000000     0.242010000000     0.0329086  
C91      C      0.286200000000     0.837230000000     0.245110000000     0.0325414  
C92      C      0.305680000000     0.797120000000     0.280910000000     0.0331562  
C93      C      0.130820000000     0.455450000000     0.297760000000     0.0328413  
C94      C      0.106140000000     0.498500000000     0.277650000000     0.0319496  
C95      C      0.083250000000     0.488840000000     0.310300000000     0.0358211  
C96      C      0.107580000000     0.445420000000     0.330290000000     0.0333284  
C97      C      0.113440000000     0.444870000000     0.085910000000     0.0324244  
C98      C      0.164560000000     0.502100000000     0.053910000000     0.0343678  
C99      C      0.140720000000     0.492190000000     0.521900000000     0.0357094  
C100     C      0.089540000000     0.434920000000     0.553800000000     0.0313581  
C101     C      0.136920000000     0.582800000000     0.113430000000     0.028341   
C102     C      0.096660000000     0.521640000000     0.148160000000     0.0220584  
C103     C      0.069700000000     0.535110000000     0.155060000000     0.0162812  
C104     C      0.109940000000     0.596230000000     0.120270000000     0.0214118  
C105     C      0.592590000000     0.810900000000     0.130270000000     0.0344641  
C106     C      0.644960000000     0.836140000000     0.174260000000     0.0338044  
C107     C      0.649040000000     0.875430000000     0.171830000000     0.0327057  
C108     C      0.596440000000     0.850090000000     0.128100000000     0.0328539  
C109     C      0.340730000000     0.483150000000     0.229350000000     0.0333818  
C110     C      0.375600000000     0.539690000000     0.188100000000     0.0338884  
C111     C      0.340460000000     0.538800000000     0.178970000000     0.0328904  
C112     C      0.305470000000     0.482320000000     0.220260000000     0.0322946  
C113     C      0.629000000000     0.532260000000     0.133450000000     0.0181773  
C114     C      0.599820000000     0.526600000000     0.193350000000     0.0186365  
C115     C      0.608550000000     0.567640000000     0.190720000000     0.0276793  
C116     C      0.637690000000     0.573300000000     0.130800000000     0.0188772  
C117     C      0.785390000000     0.567660000000     0.483070000000     0.034215   
C118     C      0.822220000000     0.627000000000     0.445400000000     0.033922   
C119     C      0.857050000000     0.627350000000     0.455410000000     0.0321362  
C120     C      0.820100000000     0.568040000000     0.493080000000     0.0325546  
C121     C      0.642270000000     0.659690000000     0.334590000000     0.0293542  
C122     C      0.679070000000     0.639340000000     0.296350000000     0.0304292  
C123     C      0.666410000000     0.651120000000     0.264180000000     0.0322047  
C124     C      0.629690000000     0.671520000000     0.302470000000     0.0334273  
C125     C      0.675050000000     0.661070000000     0.532170000000     0.0318598  
C126     C      0.610930000000     0.602920000000     0.527190000000     0.0315523  
C127     C      0.599200000000     0.616060000000     0.059000000000     0.0309298  
C128     C      0.663370000000     0.674070000000     0.064150000000     0.0321772  
C129     C      0.511000000000     0.231970000000     0.497100000000     0.0326644  
C130     C      0.565190000000     0.258090000000     0.539020000000     0.0329037  
C131     C      0.568980000000     0.297230000000     0.536770000000     0.0344967  
C132     C      0.514860000000     0.271200000000     0.494760000000     0.0339317  
C133     C      0.489750000000     0.446760000000     0.400080000000     0.0358771  
C134     C      0.538820000000     0.442520000000     0.364710000000     0.0336935  
C135     C      0.527570000000     0.455690000000     0.332590000000     0.0299778  
C136     C      0.478320000000     0.459730000000     0.367830000000     0.0333411  
C137     C      0.541200000000     0.499520000000     0.590380000000     0.036111   
C138     C      0.504640000000     0.430480000000     0.611690000000     0.0340456  
C139     C      0.493580000000     0.443740000000     0.143910000000     0.0338513  
C140     C      0.530400000000     0.512820000000     0.122710000000     0.0322894  
C141     C      0.524470000000     0.573300000000     0.402570000000     0.0167178  
C142     C      0.559860000000     0.568380000000     0.350490000000     0.0171866  
C143     C      0.575940000000     0.550350000000     0.373650000000     0.0304639  
C144     C      0.540680000000     0.555340000000     0.425790000000     0.0246823  
C145     C      0.647550000000     0.470000000000     0.990620000000     0.328729   
C146     C      0.550850000000     0.343090000000     0.008790000000     0.42002    
C147     C      0.541050000000     0.445790000000     0.054510000000     0.405933   
C148     C      0.534940000000     0.431230000000     0.930820000000     0.421683   
C149     C      0.637730000000     0.505720000000     0.901270000000     0.329697   
C150     C      0.751950000000     0.593970000000     0.946680000000     0.418138   
C151     C      0.674530000000     0.626660000000     0.862410000000     0.408553   
C152     C      0.660380000000     0.612300000000     0.982960000000     0.405207   
C153     C      0.528400000000     0.603140000000     0.771320000000     0.328161   
C154     C      0.410830000000     0.515600000000     0.724610000000     0.411867   
C155     C      0.497820000000     0.498150000000     0.681950000000     0.40559    
C156     C      0.490630000000     0.483120000000     0.804190000000     0.409641   
C157     C      0.513550000000     0.637700000000     0.686450000000     0.324788   
C158     C      0.609520000000     0.764520000000     0.659280000000     0.416714   
C159     C      0.625990000000     0.674540000000     0.735760000000     0.421037   
C160     C      0.614280000000     0.663580000000     0.609340000000     0.41014    
C161     C      0.238700000000     0.606900000000     0.698620000000     0.331135   
C162     C      0.272250000000     0.513240000000     0.689990000000     0.406764   
C163     C      0.155880000000     0.495380000000     0.741830000000     0.406967   
C164     C      0.171760000000     0.492340000000     0.618920000000     0.416129   
C165     C      0.150340000000     0.603970000000     0.712830000000     0.340716   
C166     C      0.202960000000     0.731530000000     0.752140000000     0.410152   
C167     C      0.082890000000     0.654580000000     0.682580000000     0.411396   
C168     C      0.096640000000     0.652010000000     0.805140000000     0.409234   
C169     C      0.011140000000     0.504160000000     0.962660000000     0.338841   
C170     C      0.957780000000     0.376940000000     0.922570000000     0.410207   
C171     C      0.064380000000     0.455970000000     0.870040000000     0.409118   
C172     C      0.078020000000     0.453070000000     0.992660000000     0.411547   
C173     C      0.922820000000     0.500680000000     0.977100000000     0.330855   
C174     C      0.888860000000     0.594470000000     0.984810000000     0.406689   
C175     C      0.989090000000     0.615270000000     0.056360000000     0.416805   
C176     C      0.004810000000     0.612070000000     0.933160000000     0.407841   
C177     C      0.686190000000     0.214400000000     0.923270000000     0.332303   
C178     C      0.808130000000     0.242240000000     0.906210000000     0.407716   
C179     C      0.706720000000     0.125330000000     0.964480000000     0.408243   
C180     C      0.722320000000     0.141310000000     0.840170000000     0.409549   
C181     C      0.614730000000     0.140940000000     0.988910000000     0.324486   
C182     C      0.536040000000     0.188790000000     0.017400000000     0.408119   
C183     C      0.500050000000     0.065220000000     0.952780000000     0.405454   
C184     C      0.510200000000     0.080180000000     0.076290000000     0.412131   
C185     C      0.471890000000     0.888710000000     0.740090000000     0.331456   
C186     C      0.353320000000     0.865790000000     0.764090000000     0.407691   
C187     C      0.443680000000     0.967010000000     0.826170000000     0.415343   
C188     C      0.454970000000     0.981560000000     0.702700000000     0.406445   
C189     C      0.547540000000     0.968970000000     0.680460000000     0.330194   
C190     C      0.624940000000     0.919070000000     0.650580000000     0.407776   
C191     C      0.651140000000     0.027720000000     0.591550000000     0.41153    
C192     C      0.663490000000     0.043030000000     0.714420000000     0.408468   
C193     C      0.541740000000     0.060690000000     0.785830000000     0.0277704  
C194     C      0.549160000000     0.003260000000     0.801350000000     0.0250397  
C195     C      0.576960000000     0.013970000000     0.772510000000     0.023397   
C196     C      0.569700000000     0.071540000000     0.757120000000     0.0172555  
C197     C      0.469350000000     0.051610000000     0.892510000000     0.0314143  
C198     C      0.480720000000     0.001630000000     0.921590000000     0.0343245  
C199     C      0.466460000000     0.976760000000     0.889490000000     0.0327909  
C200     C      0.454860000000     0.026610000000     0.860470000000     0.0355824  
C201     C      0.456310000000     0.031350000000     0.113490000000     0.033247   
C202     C      0.521490000000     0.061340000000     0.136960000000     0.0373181  
C203     C      0.507500000000     0.036320000000     0.668920000000     0.0364655  
C204     C      0.442320000000     0.006190000000     0.645500000000     0.0348652  
C205     C      0.719020000000     0.102160000000     0.022660000000     0.0339816  
C206     C      0.654270000000     0.069860000000     0.997840000000     0.0377393  
C207     C      0.640170000000     0.045200000000     0.530070000000     0.0373687  
C208     C      0.704960000000     0.077260000000     0.554800000000     0.0339107  
C209     C      0.703370000000     0.133620000000     0.775710000000     0.0288245  
C210     C      0.710400000000     0.081400000000     0.806040000000     0.0291042  
C211     C      0.694950000000     0.056200000000     0.774250000000     0.0308698  
C212     C      0.687810000000     0.108400000000     0.743970000000     0.0341285  
C213     C      0.584800000000     0.103170000000     0.894740000000     0.0293901  
C214     C      0.621050000000     0.099780000000     0.842780000000     0.0250851  
C215     C      0.622700000000     0.066970000000     0.859850000000     0.0218096  
C216     C      0.586510000000     0.070410000000     0.911870000000     0.0219626  
C217     C      0.892950000000     0.346330000000     0.897420000000     0.0330468  
C218     C      0.913050000000     0.304790000000     0.930000000000     0.0328034  
C219     C      0.875080000000     0.270580000000     0.925720000000     0.0326631  
C220     C      0.855130000000     0.312250000000     0.893170000000     0.0331216  
C221     C      0.050800000000     0.511020000000     0.055750000000     0.0219147  
C222     C      0.091090000000     0.572200000000     0.021060000000     0.0163121  
C223     C      0.064140000000     0.585670000000     0.027960000000     0.021795   
C224     C      0.023820000000     0.524450000000     0.062590000000     0.0281419  
C225     C      0.052680000000     0.661760000000     0.844490000000     0.0332965  
C226     C      0.078150000000     0.619550000000     0.865080000000     0.0358876  
C227     C      0.055150000000     0.609720000000     0.897670000000     0.0322249  
C228     C      0.029310000000     0.651540000000     0.876940000000     0.0328724  
C229     C      0.071360000000     0.672620000000     0.621410000000     0.0311553  
C230     C      0.020110000000     0.615490000000     0.653420000000     0.0353355  
C231     C      0.996240000000     0.605600000000     0.121430000000     0.0350131  
C232     C      0.047460000000     0.662650000000     0.089320000000     0.0325556  
C233     C      0.267660000000     0.763100000000     0.777760000000     0.0330247  
C234     C      0.248020000000     0.803120000000     0.742010000000     0.0328808  
C235     C      0.286200000000     0.837230000000     0.745110000000     0.0325421  
C236     C      0.305690000000     0.797120000000     0.780910000000     0.0331036  
C237     C      0.130820000000     0.455450000000     0.797760000000     0.032842   
C238     C      0.106140000000     0.498500000000     0.777650000000     0.0319624  
C239     C      0.083240000000     0.488840000000     0.810300000000     0.0357764  
C240     C      0.107580000000     0.445420000000     0.830290000000     0.0333053  
C241     C      0.113440000000     0.444870000000     0.585910000000     0.0324325  
C242     C      0.164560000000     0.502100000000     0.553910000000     0.0344879  
C243     C      0.140720000000     0.492190000000     0.021900000000     0.0361354  
C244     C      0.089540000000     0.434920000000     0.053800000000     0.0314032  
C245     C      0.136920000000     0.582800000000     0.613430000000     0.0283346  
C246     C      0.096660000000     0.521650000000     0.648160000000     0.0220582  
C247     C      0.069710000000     0.535120000000     0.655060000000     0.0163201  
C248     C      0.109940000000     0.596230000000     0.620270000000     0.0214106  
C249     C      0.592590000000     0.810900000000     0.630270000000     0.0344034  
C250     C      0.644960000000     0.836130000000     0.674260000000     0.0338782  
C251     C      0.649040000000     0.875430000000     0.671830000000     0.0326669  
C252     C      0.596440000000     0.850090000000     0.628100000000     0.0328566  
C253     C      0.340730000000     0.483150000000     0.729350000000     0.0333506  
C254     C      0.375600000000     0.539690000000     0.688100000000     0.0338739  
C255     C      0.340460000000     0.538800000000     0.678970000000     0.0328961  
C256     C      0.305470000000     0.482330000000     0.720260000000     0.0323534  
C257     C      0.629000000000     0.532260000000     0.633450000000     0.0181451  
C258     C      0.599820000000     0.526600000000     0.693350000000     0.0186358  
C259     C      0.608550000000     0.567640000000     0.690720000000     0.0276585  
C260     C      0.637690000000     0.573300000000     0.630810000000     0.0189039  
C261     C      0.785390000000     0.567650000000     0.983060000000     0.0343386  
C262     C      0.822220000000     0.627000000000     0.945400000000     0.0339455  
C263     C      0.857050000000     0.627350000000     0.955410000000     0.0320237  
C264     C      0.820100000000     0.568030000000     0.993080000000     0.0321006  
C265     C      0.642270000000     0.659690000000     0.834580000000     0.0293444  
C266     C      0.679060000000     0.639340000000     0.796350000000     0.0305258  
C267     C      0.666410000000     0.651110000000     0.764180000000     0.0320643  
C268     C      0.629690000000     0.671520000000     0.802460000000     0.0334665  
C269     C      0.675050000000     0.661070000000     0.032170000000     0.0318745  
C270     C      0.610930000000     0.602920000000     0.027190000000     0.0315806  
C271     C      0.599200000000     0.616060000000     0.559000000000     0.0309092  
C272     C      0.663370000000     0.674070000000     0.564160000000     0.0321527  
C273     C      0.511000000000     0.231970000000     0.997100000000     0.0324308  
C274     C      0.565190000000     0.258090000000     0.039020000000     0.0329986  
C275     C      0.568980000000     0.297230000000     0.036770000000     0.0345724  
C276     C      0.514860000000     0.271200000000     0.994760000000     0.0336797  
C277     C      0.489760000000     0.446760000000     0.900080000000     0.0359724  
C278     C      0.538820000000     0.442520000000     0.864710000000     0.0337126  
C279     C      0.527570000000     0.455690000000     0.832590000000     0.0299323  
C280     C      0.478320000000     0.459730000000     0.867830000000     0.0332845  
C281     C      0.541200000000     0.499520000000     0.090380000000     0.0361386  
C282     C      0.504640000000     0.430480000000     0.111690000000     0.0340535  
C283     C      0.493580000000     0.443740000000     0.643910000000     0.0338233  
C284     C      0.530390000000     0.512820000000     0.622710000000     0.0323202  
C285     C      0.524470000000     0.573300000000     0.902570000000     0.0167017  
C286     C      0.559860000000     0.568380000000     0.850490000000     0.0171955  
C287     C      0.575950000000     0.550360000000     0.873650000000     0.0304381  
C288     C      0.540680000000     0.555340000000     0.925790000000     0.02466    
H1       H      0.527880000000     0.079060000000     0.291120000000     0.0380119  
H2       H      0.541190000000     0.976490000000     0.318880000000     0.0442225  
H3       H      0.590810000000     0.995580000000     0.267310000000     0.0356471  
H4       H      0.577810000000     0.098430000000     0.239740000000     0.0365077  
H5       H      0.470300000000     0.081140000000     0.392380000000     0.0451523  
H6       H      0.490900000000     0.990670000000     0.444990000000     0.0420826  
H7       H      0.466190000000     0.947570000000     0.389390000000     0.0450734  
H8       H      0.445280000000     0.037830000000     0.336800000000     0.0424807  
H9       H      0.435110000000     0.028250000000     0.592130000000     0.0441512  
H10      H      0.553080000000     0.082460000000     0.634660000000     0.048632   
H11      H      0.528810000000     0.039020000000     0.189880000000     0.0473911  
H12      H      0.410820000000     0.984650000000     0.147680000000     0.0447008  
H13      H      0.750380000000     0.124450000000     0.520980000000     0.045868   
H14      H      0.633190000000     0.065980000000     0.476090000000     0.0465189  
H15      H      0.608720000000     0.023290000000     0.031920000000     0.0486171  
H16      H      0.725990000000     0.081330000000     0.076720000000     0.0442254  
H17      H      0.705770000000     0.163840000000     0.275230000000     0.0445909  
H18      H      0.718470000000     0.069300000000     0.330160000000     0.0429721  
H19      H      0.691890000000     0.025700000000     0.274960000000     0.0449951  
H20      H      0.678990000000     0.120190000000     0.220160000000     0.0446784  
H21      H      0.569950000000     0.117480000000     0.408400000000     0.0349724  
H22      H      0.634230000000     0.111070000000     0.315440000000     0.0404327  
H23      H      0.637250000000     0.052460000000     0.345940000000     0.0371768  
H24      H      0.573100000000     0.058950000000     0.439140000000     0.0360212  
H25      H      0.898610000000     0.375690000000     0.385850000000     0.0453729  
H26      H      0.935060000000     0.300610000000     0.444890000000     0.0445217  
H27      H      0.869150000000     0.241220000000     0.437520000000     0.04531    
H28      H      0.833150000000     0.316710000000     0.378540000000     0.0456679  
H29      H      0.045580000000     0.481710000000     0.566770000000     0.0378104  
H30      H      0.117540000000     0.590980000000     0.504700000000     0.0374143  
H31      H      0.069370000000     0.615040000000     0.517030000000     0.0373664  
H32      H      0.997380000000     0.505700000000     0.578970000000     0.0430046  
H33      H      0.050720000000     0.682320000000     0.324110000000     0.0438632  
H34      H      0.096930000000     0.606060000000     0.361490000000     0.0484865  
H35      H      0.057200000000     0.589230000000     0.418020000000     0.0547209  
H36      H      0.010190000000     0.664620000000     0.380400000000     0.0459673  
H37      H      0.101030000000     0.699090000000     0.120080000000     0.0430412  
H38      H      0.008210000000     0.595730000000     0.178000000000     0.044867   
H39      H      0.966890000000     0.578580000000     0.622580000000     0.0449471  
H40      H      0.059590000000     0.681790000000     0.564400000000     0.0408794  
H41      H      0.261730000000     0.734380000000     0.291020000000     0.0451695  
H42      H      0.226140000000     0.806710000000     0.226210000000     0.0445805  
H43      H      0.292400000000     0.865910000000     0.231570000000     0.0453101  
H44      H      0.327570000000     0.793250000000     0.296420000000     0.0452651  
H45      H      0.149460000000     0.441820000000     0.294030000000     0.0460443  
H46      H      0.104490000000     0.519410000000     0.257510000000     0.0549844  
H47      H      0.064960000000     0.502860000000     0.314150000000     0.0485159  
H48      H      0.109120000000     0.424420000000     0.350450000000     0.0438697  
H49      H      0.101340000000     0.425670000000     0.110800000000     0.0408903  
H50      H      0.193870000000     0.529180000000     0.052790000000     0.045149   
H51      H      0.152620000000     0.512010000000     0.497350000000     0.0447536  
H52      H      0.059900000000     0.408390000000     0.555090000000     0.0428477  
H53      H      0.163330000000     0.601520000000     0.097010000000     0.0427547  
H54      H      0.091450000000     0.492300000000     0.159130000000     0.036983   
H55      H      0.043280000000     0.516370000000     0.171460000000     0.0375215  
H56      H      0.115140000000     0.625530000000     0.109200000000     0.0377666  
H57      H      0.569740000000     0.786230000000     0.113490000000     0.0450032  
H58      H      0.664570000000     0.831900000000     0.193050000000     0.0440771  
H59      H      0.671590000000     0.900000000000     0.188930000000     0.0458974  
H60      H      0.576430000000     0.854160000000     0.109720000000     0.0447418  
H61      H      0.339620000000     0.460750000000     0.249520000000     0.0444665  
H62      H      0.402630000000     0.563010000000     0.174740000000     0.0438856  
H63      H      0.341830000000     0.561560000000     0.159080000000     0.0453222  
H64      H      0.278420000000     0.459400000000     0.233860000000     0.0455485  
H65      H      0.636890000000     0.518310000000     0.110810000000     0.0434447  
H66      H      0.584750000000     0.508230000000     0.217910000000     0.0397994  
H67      H      0.600440000000     0.581460000000     0.213250000000     0.0449623  
H68      H      0.652530000000     0.591600000000     0.106150000000     0.0412943  
H69      H      0.757720000000     0.543380000000     0.494610000000     0.0423957  
H70      H      0.824300000000     0.650740000000     0.426340000000     0.0438439  
H71      H      0.884740000000     0.651270000000     0.443580000000     0.045535   
H72      H      0.817800000000     0.543950000000     0.511810000000     0.0450849  
H73      H      0.631670000000     0.663250000000     0.361840000000     0.0455808  
H74      H      0.698240000000     0.626360000000     0.292630000000     0.0449686  
H75      H      0.676460000000     0.646950000000     0.236860000000     0.044777   
H76      H      0.609960000000     0.683820000000     0.306190000000     0.0420386  
H77      H      0.705320000000     0.679760000000     0.522510000000     0.0443018  
H78      H      0.589240000000     0.574610000000     0.513430000000     0.047632   
H79      H      0.568910000000     0.597380000000     0.068600000000     0.0413626  
H80      H      0.685080000000     0.702290000000     0.078010000000     0.0444772  
H81      H      0.487850000000     0.207090000000     0.480740000000     0.0457808  
H82      H      0.585900000000     0.254380000000     0.556670000000     0.0450517  
H83      H      0.592460000000     0.322170000000     0.552790000000     0.0445809  
H84      H      0.494520000000     0.275110000000     0.476740000000     0.0435448  
H85      H      0.474350000000     0.444100000000     0.426310000000     0.0428748  
H86      H      0.563010000000     0.436250000000     0.362190000000     0.0407984  
H87      H      0.543600000000     0.459130000000     0.306590000000     0.0423107  
H88      H      0.454600000000     0.466720000000     0.370390000000     0.0448113  
H89      H      0.560220000000     0.522600000000     0.570040000000     0.0408394  
H90      H      0.493940000000     0.397670000000     0.608520000000     0.04436    
H91      H      0.474820000000     0.420670000000     0.164430000000     0.0444007  
H92      H      0.541380000000     0.545670000000     0.126020000000     0.0546069  
H93      H      0.504170000000     0.582280000000     0.413970000000     0.0394623  
H94      H      0.567510000000     0.573410000000     0.320900000000     0.0299611  
H95      H      0.596090000000     0.541270000000     0.362110000000     0.0177626  
H96      H      0.533130000000     0.550200000000     0.455430000000     0.038572   
H97      H      0.527880000000     0.079060000000     0.791110000000     0.0379981  
H98      H      0.541190000000     0.976490000000     0.818880000000     0.0442127  
H99      H      0.590810000000     0.995580000000     0.767310000000     0.0356324  
H100     H      0.577810000000     0.098430000000     0.739730000000     0.0365278  
H101     H      0.470310000000     0.081140000000     0.892390000000     0.0451524  
H102     H      0.490900000000     0.990670000000     0.944990000000     0.0420379  
H103     H      0.466190000000     0.947570000000     0.889390000000     0.0450489  
H104     H      0.445280000000     0.037830000000     0.836800000000     0.042469   
H105     H      0.435110000000     0.028240000000     0.092130000000     0.0441904  
H106     H      0.553080000000     0.082460000000     0.134660000000     0.0486385  
H107     H      0.528810000000     0.039020000000     0.689880000000     0.0473891  
H108     H      0.410820000000     0.984650000000     0.647680000000     0.0446813  
H109     H      0.750380000000     0.124450000000     0.020980000000     0.0459213  
H110     H      0.633190000000     0.065980000000     0.976090000000     0.0465685  
H111     H      0.608720000000     0.023290000000     0.531920000000     0.0486253  
H112     H      0.725990000000     0.081340000000     0.576720000000     0.0442002  
H113     H      0.705770000000     0.163840000000     0.775230000000     0.0445769  
H114     H      0.718480000000     0.069300000000     0.830160000000     0.0429474  
H115     H      0.691890000000     0.025700000000     0.774960000000     0.0449853  
H116     H      0.678990000000     0.120190000000     0.720160000000     0.044683   
H117     H      0.569950000000     0.117480000000     0.908400000000     0.0349679  
H118     H      0.634230000000     0.111070000000     0.815430000000     0.0404293  
H119     H      0.637250000000     0.052460000000     0.845940000000     0.0371695  
H120     H      0.573100000000     0.058950000000     0.939140000000     0.0359606  
H121     H      0.898610000000     0.375690000000     0.885840000000     0.0453712  
H122     H      0.935060000000     0.300610000000     0.944890000000     0.044492   
H123     H      0.869150000000     0.241220000000     0.937520000000     0.0452277  
H124     H      0.833150000000     0.316710000000     0.878540000000     0.0456647  
H125     H      0.045580000000     0.481700000000     0.066780000000     0.0378446  
H126     H      0.117540000000     0.590980000000     0.004700000000     0.0374926  
H127     H      0.069370000000     0.615040000000     0.017040000000     0.037434   
H128     H      0.997390000000     0.505700000000     0.078970000000     0.0430293  
H129     H      0.050720000000     0.682320000000     0.824110000000     0.0438531  
H130     H      0.096930000000     0.606060000000     0.861490000000     0.0484538  
H131     H      0.057200000000     0.589230000000     0.918020000000     0.0547137  
H132     H      0.010190000000     0.664620000000     0.880400000000     0.0459194  
H133     H      0.101030000000     0.699090000000     0.620080000000     0.0430345  
H134     H      0.008210000000     0.595730000000     0.678000000000     0.0448604  
H135     H      0.966890000000     0.578580000000     0.122580000000     0.0449649  
H136     H      0.059590000000     0.681790000000     0.064400000000     0.040924   
H137     H      0.261730000000     0.734380000000     0.791020000000     0.0451438  
H138     H      0.226140000000     0.806700000000     0.726210000000     0.044568   
H139     H      0.292400000000     0.865910000000     0.731570000000     0.0452951  
H140     H      0.327570000000     0.793250000000     0.796420000000     0.0452601  
H141     H      0.149460000000     0.441820000000     0.794030000000     0.046029   
H142     H      0.104490000000     0.519410000000     0.757520000000     0.0549726  
H143     H      0.064960000000     0.502870000000     0.814150000000     0.048526   
H144     H      0.109120000000     0.424420000000     0.850450000000     0.0438579  
H145     H      0.101330000000     0.425670000000     0.610800000000     0.0408606  
H146     H      0.193870000000     0.529180000000     0.552790000000     0.0450575  
H147     H      0.152620000000     0.512020000000     0.997360000000     0.0444383  
H148     H      0.059900000000     0.408390000000     0.055090000000     0.0429166  
H149     H      0.163330000000     0.601520000000     0.597010000000     0.0427325  
H150     H      0.091450000000     0.492300000000     0.659130000000     0.0369792  
H151     H      0.043280000000     0.516370000000     0.671460000000     0.0375003  
H152     H      0.115140000000     0.625530000000     0.609200000000     0.0377536  
H153     H      0.569740000000     0.786230000000     0.613490000000     0.0449837  
H154     H      0.664570000000     0.831900000000     0.693060000000     0.0440362  
H155     H      0.671590000000     0.900000000000     0.688930000000     0.0458901  
H156     H      0.576430000000     0.854160000000     0.609720000000     0.0447096  
H157     H      0.339610000000     0.460750000000     0.749520000000     0.0444518  
H158     H      0.402630000000     0.563010000000     0.674740000000     0.0438707  
H159     H      0.341830000000     0.561560000000     0.659080000000     0.0452974  
H160     H      0.278420000000     0.459400000000     0.733860000000     0.0455077  
H161     H      0.636890000000     0.518310000000     0.610810000000     0.0434234  
H162     H      0.584750000000     0.508230000000     0.717910000000     0.0397957  
H163     H      0.600440000000     0.581460000000     0.713250000000     0.0449696  
H164     H      0.652530000000     0.591600000000     0.606150000000     0.0412599  
H165     H      0.757720000000     0.543380000000     0.994610000000     0.0422995  
H166     H      0.824300000000     0.650740000000     0.926340000000     0.0438166  
H167     H      0.884740000000     0.651260000000     0.943580000000     0.0455442  
H168     H      0.817800000000     0.543950000000     0.011810000000     0.0454164  
H169     H      0.631680000000     0.663250000000     0.861840000000     0.0455659  
H170     H      0.698240000000     0.626360000000     0.792630000000     0.044938   
H171     H      0.676450000000     0.646950000000     0.736860000000     0.0448161  
H172     H      0.609960000000     0.683820000000     0.806190000000     0.0420148  
H173     H      0.705320000000     0.679760000000     0.022520000000     0.0443931  
H174     H      0.589240000000     0.574610000000     0.013430000000     0.0477373  
H175     H      0.568910000000     0.597380000000     0.568610000000     0.041344   
H176     H      0.685070000000     0.702290000000     0.578010000000     0.0444458  
H177     H      0.487850000000     0.207090000000     0.980740000000     0.0457808  
H178     H      0.585900000000     0.254380000000     0.056670000000     0.0450618  
H179     H      0.592460000000     0.322170000000     0.052790000000     0.0445982  
H180     H      0.494520000000     0.275110000000     0.976740000000     0.0435492  
H181     H      0.474350000000     0.444100000000     0.926310000000     0.0428066  
H182     H      0.563010000000     0.436250000000     0.862190000000     0.0407886  
H183     H      0.543590000000     0.459140000000     0.806590000000     0.0423302  
H184     H      0.454600000000     0.466720000000     0.870390000000     0.0448051  
H185     H      0.560220000000     0.522600000000     0.070040000000     0.0408581  
H186     H      0.493940000000     0.397670000000     0.108520000000     0.0443887  
H187     H      0.474820000000     0.420670000000     0.664430000000     0.0443865  
H188     H      0.541380000000     0.545670000000     0.626020000000     0.0545838  
H189     H      0.504170000000     0.582280000000     0.913970000000     0.0394206  
H190     H      0.567510000000     0.573410000000     0.820900000000     0.0299583  
H191     H      0.596090000000     0.541270000000     0.862110000000     0.0177682  
H192     H      0.533130000000     0.550200000000     0.955430000000     0.0384984  
In1      In     0.567450000000     0.421470000000     0.495070000000     2.42393    
In2      In     0.682890000000     0.586070000000     0.422180000000     2.4239     
In3      In     0.481070000000     0.524570000000     0.246330000000     2.43677    
In4      In     0.592250000000     0.686000000000     0.173300000000     2.4258     
In5      In     0.209310000000     0.525010000000     0.185310000000     2.40615    
In6      In     0.133420000000     0.661880000000     0.238250000000     2.42256    
In7      In     0.027620000000     0.446050000000     0.436960000000     2.42249    
In8      In     0.951670000000     0.582540000000     0.489950000000     2.40689    
In9      In     0.731790000000     0.180410000000     0.407150000000     2.40969    
In10     In     0.539500000000     0.118620000000     0.509600000000     2.40738    
In11     In     0.430100000000     0.926120000000     0.259670000000     2.41224    
In12     In     0.621960000000     0.989530000000     0.158430000000     2.4072     
In13     In     0.567450000000     0.421470000000     0.995070000000     2.42302    
In14     In     0.682890000000     0.586060000000     0.922180000000     2.42374    
In15     In     0.481070000000     0.524570000000     0.746330000000     2.43672    
In16     In     0.592250000000     0.686000000000     0.673300000000     2.42572    
In17     In     0.209310000000     0.525010000000     0.685310000000     2.40615    
In18     In     0.133410000000     0.661880000000     0.738240000000     2.42296    
In19     In     0.027620000000     0.446050000000     0.936960000000     2.42258    
In20     In     0.951670000000     0.582540000000     0.989950000000     2.40599    
In21     In     0.731800000000     0.180410000000     0.907150000000     2.40974    
In22     In     0.539500000000     0.118620000000     0.009600000000     2.40828    
In23     In     0.430090000000     0.926120000000     0.759670000000     2.41221    
In24     In     0.621960000000     0.989530000000     0.658430000000     2.40719    
N1       N      0.532260000000     0.026910000000     0.307420000000    -0.109295   
N2       N      0.586630000000     0.047890000000     0.251040000000    -0.110324   
N3       N      0.482940000000     0.039380000000     0.422650000000    -0.176867   
N4       N      0.454310000000     0.989700000000     0.358760000000    -0.176984   
N5       N      0.495960000000     0.058150000000     0.608980000000    -0.176563   
N6       N      0.468100000000     0.008190000000     0.172710000000    -0.175863   
N7       N      0.693490000000     0.098940000000     0.494650000000    -0.176068   
N8       N      0.665450000000     0.049560000000     0.058760000000    -0.176221   
N9       N      0.712980000000     0.119310000000     0.307220000000    -0.178441   
N10      N      0.682460000000     0.069270000000     0.243860000000    -0.175785   
N11      N      0.602080000000     0.117120000000     0.360540000000    -0.102277   
N12      N      0.605370000000     0.052980000000     0.394040000000    -0.104694   
N13      N      0.921580000000     0.342710000000     0.416450000000    -0.176524   
N14      N      0.846080000000     0.274680000000     0.407980000000    -0.175858   
N15      N      0.083850000000     0.535200000000     0.535140000000    -0.108369   
N16      N      0.031110000000     0.561480000000     0.548570000000    -0.110324   
N17      N      0.076240000000     0.644870000000     0.338250000000    -0.176355   
N18      N      0.029990000000     0.624810000000     0.402970000000    -0.175128   
N19      N      0.058050000000     0.648130000000     0.152870000000    -0.17552    
N20      N      0.010470000000     0.628380000000     0.589080000000    -0.177511   
N21      N      0.239200000000     0.765930000000     0.257590000000    -0.176444   
N22      N      0.315110000000     0.833770000000     0.263800000000    -0.175976   
N23      N      0.130700000000     0.482720000000     0.272020000000    -0.175071   
N24      N      0.084670000000     0.463000000000     0.336870000000    -0.176452   
N25      N      0.150370000000     0.479230000000     0.086210000000    -0.177162   
N26      N      0.102820000000     0.459480000000     0.522380000000    -0.17575    
N27      N      0.129650000000     0.545800000000     0.127510000000    -0.110621   
N28      N      0.076920000000     0.572090000000     0.140920000000    -0.10837    
N29      N      0.616050000000     0.803780000000     0.154220000000    -0.176999   
N30      N      0.623940000000     0.881930000000     0.149670000000    -0.17565    
N31      N      0.375780000000     0.512510000000     0.213920000000    -0.176671   
N32      N      0.305690000000     0.510870000000     0.195840000000    -0.175709   
N33      N      0.610200000000     0.509790000000     0.164640000000    -0.10362    
N34      N      0.627270000000     0.590080000000     0.159500000000    -0.104578   
N35      N      0.786440000000     0.596510000000     0.458520000000    -0.177945   
N36      N      0.855670000000     0.597170000000     0.478380000000    -0.175704   
N37      N      0.666020000000     0.642570000000     0.331340000000    -0.177477   
N38      N      0.641000000000     0.666220000000     0.267320000000    -0.178335   
N39      N      0.648850000000     0.625410000000     0.513950000000    -0.173974   
N40      N      0.625540000000     0.651410000000     0.077540000000    -0.176028   
N41      N      0.536930000000     0.225880000000     0.518340000000    -0.175412   
N42      N      0.544540000000     0.303910000000     0.513790000000    -0.177629   
N43      N      0.520800000000     0.439490000000     0.398620000000    -0.177809   
N44      N      0.498230000000     0.465530000000     0.334550000000    -0.176392   
N45      N      0.528800000000     0.458490000000     0.585280000000    -0.175055   
N46      N      0.507040000000     0.484920000000     0.149580000000    -0.174084   
N47      N      0.534430000000     0.579450000000     0.365420000000    -0.107333   
N48      N      0.566030000000     0.544230000000     0.410790000000    -0.10587    
N49      N      0.532260000000     0.026920000000     0.807420000000    -0.109302   
N50      N      0.586630000000     0.047890000000     0.751040000000    -0.110316   
N51      N      0.482940000000     0.039380000000     0.922650000000    -0.176883   
N52      N      0.454310000000     0.989700000000     0.858760000000    -0.176989   
N53      N      0.495960000000     0.058150000000     0.108980000000    -0.176562   
N54      N      0.468100000000     0.008190000000     0.672710000000    -0.175865   
N55      N      0.693490000000     0.098940000000     0.994650000000    -0.176122   
N56      N      0.665440000000     0.049560000000     0.558760000000    -0.176194   
N57      N      0.712980000000     0.119310000000     0.807220000000    -0.178452   
N58      N      0.682460000000     0.069270000000     0.743860000000    -0.17577    
N59      N      0.602080000000     0.117120000000     0.860540000000    -0.102267   
N60      N      0.605370000000     0.052980000000     0.894040000000    -0.104727   
N61      N      0.921580000000     0.342700000000     0.916450000000    -0.176472   
N62      N      0.846080000000     0.274680000000     0.907990000000    -0.175932   
N63      N      0.083850000000     0.535200000000     0.035140000000    -0.108323   
N64      N      0.031110000000     0.561480000000     0.048570000000    -0.110294   
N65      N      0.076240000000     0.644870000000     0.838250000000    -0.176398   
N66      N      0.029980000000     0.624810000000     0.902970000000    -0.175243   
N67      N      0.058050000000     0.648130000000     0.652880000000    -0.17556    
N68      N      0.010470000000     0.628380000000     0.089080000000    -0.17749    
N69      N      0.239200000000     0.765930000000     0.757590000000    -0.176475   
N70      N      0.315110000000     0.833770000000     0.763800000000    -0.175967   
N71      N      0.130700000000     0.482720000000     0.772020000000    -0.175075   
N72      N      0.084670000000     0.463000000000     0.836870000000    -0.176387   
N73      N      0.150370000000     0.479230000000     0.586210000000    -0.177193   
N74      N      0.102820000000     0.459480000000     0.022380000000    -0.175669   
N75      N      0.129650000000     0.545800000000     0.627510000000    -0.110627   
N76      N      0.076920000000     0.572090000000     0.640920000000    -0.108387   
N77      N      0.616050000000     0.803780000000     0.654230000000    -0.177018   
N78      N      0.623940000000     0.881930000000     0.649670000000    -0.175654   
N79      N      0.375780000000     0.512510000000     0.713920000000    -0.1767     
N80      N      0.305690000000     0.510870000000     0.695840000000    -0.17577    
N81      N      0.610200000000     0.509790000000     0.664640000000    -0.103625   
N82      N      0.627270000000     0.590090000000     0.659500000000    -0.104584   
N83      N      0.786440000000     0.596510000000     0.958520000000    -0.177949   
N84      N      0.855670000000     0.597160000000     0.978380000000    -0.175608   
N85      N      0.666020000000     0.642570000000     0.831340000000    -0.177516   
N86      N      0.641000000000     0.666220000000     0.767320000000    -0.178299   
N87      N      0.648850000000     0.625410000000     0.013950000000    -0.173769   
N88      N      0.625540000000     0.651410000000     0.577540000000    -0.176067   
N89      N      0.536930000000     0.225880000000     0.018350000000    -0.175345   
N90      N      0.544540000000     0.303910000000     0.013800000000    -0.177509   
N91      N      0.520800000000     0.439490000000     0.898620000000    -0.177847   
N92      N      0.498230000000     0.465530000000     0.834550000000    -0.17638    
N93      N      0.528800000000     0.458490000000     0.085280000000    -0.175038   
N94      N      0.507040000000     0.484920000000     0.649570000000    -0.174045   
N95      N      0.534430000000     0.579450000000     0.865420000000    -0.107342   
N96      N      0.566030000000     0.544230000000     0.910790000000    -0.105883   
O1       O      0.564620000000     0.426350000000     0.430970000000    -0.50081    
O2       O      0.520920000000     0.430250000000     0.463090000000    -0.498941   
O3       O      0.578920000000     0.374270000000     0.524590000000    -0.505149   
O4       O      0.626580000000     0.477190000000     0.512860000000    -0.463834   
O5       O      0.563680000000     0.470690000000     0.529650000000    -0.482242   
O6       O      0.627950000000     0.438340000000     0.470550000000    -0.470159   
O7       O      0.530400000000     0.351340000000     0.486580000000    -0.50463    
O8       O      0.531400000000     0.408410000000     0.549110000000    -0.499582   
O9       O      0.694730000000     0.632690000000     0.468940000000    -0.499579   
O10      O      0.637500000000     0.578800000000     0.466090000000    -0.479774   
O11      O      0.718500000000     0.565170000000     0.457000000000    -0.517124   
O12      O      0.629600000000     0.521180000000     0.429040000000    -0.472364   
O13      O      0.659530000000     0.624870000000     0.394320000000    -0.50516    
O14      O      0.668700000000     0.530980000000     0.384070000000    -0.479729   
O15      O      0.750800000000     0.619330000000     0.423790000000    -0.498042   
O16      O      0.695340000000     0.609530000000     0.360960000000    -0.493299   
O17      O      0.464110000000     0.493130000000     0.304340000000    -0.493438   
O18      O      0.511450000000     0.493260000000     0.274650000000    -0.511225   
O19      O      0.443680000000     0.543590000000     0.212180000000    -0.511135   
O20      O      0.492490000000     0.581650000000     0.280190000000    -0.48187    
O21      O      0.474990000000     0.473510000000     0.206870000000    -0.501147   
O22      O      0.540330000000     0.584800000000     0.249840000000    -0.485555   
O23      O      0.413170000000     0.491640000000     0.248390000000    -0.493898   
O24      O      0.512100000000     0.536030000000     0.189670000000    -0.485381   
O25      O      0.579820000000     0.643390000000     0.122860000000    -0.489992   
O26      O      0.637640000000     0.695460000000     0.127930000000    -0.497844   
O27      O      0.582720000000     0.733670000000     0.141920000000    -0.501802   
O28      O      0.531650000000     0.676470000000     0.189820000000    -0.472542   
O29      O      0.634000000000     0.668390000000     0.202780000000    -0.499987   
O30      O      0.535380000000     0.623440000000     0.176520000000    -0.458216   
O31      O      0.628250000000     0.755830000000     0.183210000000    -0.503353   
O32      O      0.601500000000     0.687160000000     0.237220000000    -0.50543    
O33      O      0.204130000000     0.525850000000     0.121140000000    -0.498186   
O34      O      0.159030000000     0.474180000000     0.150090000000    -0.506587   
O35      O      0.272060000000     0.541030000000     0.169880000000    -0.501589   
O36      O      0.246300000000     0.584270000000     0.219230000000    -0.47661    
O37      O      0.157870000000     0.521820000000     0.218340000000    -0.503442   
O38      O      0.216100000000     0.588000000000     0.171350000000    -0.466051   
O39      O      0.239920000000     0.489990000000     0.206490000000    -0.485448   
O40      O      0.180410000000     0.483190000000     0.236280000000    -0.482682   
O41      O      0.116140000000     0.634400000000     0.297110000000    -0.494205   
O42      O      0.096170000000     0.675320000000     0.279500000000    -0.501936   
O43      O      0.194700000000     0.696360000000     0.264330000000    -0.508252   
O44      O      0.166510000000     0.640200000000     0.199880000000    -0.4817     
O45      O      0.072600000000     0.630630000000     0.210690000000    -0.502726   
O46      O      0.125580000000     0.597110000000     0.238560000000    -0.474744   
O47      O      0.175690000000     0.731890000000     0.233200000000    -0.492526   
O48      O      0.118680000000     0.683080000000     0.182940000000    -0.492788   
O49      O      0.088350000000     0.477070000000     0.464580000000    -0.503971   
O50      O      0.042210000000     0.424590000000     0.492250000000    -0.493043   
O51      O      0.965950000000     0.412520000000     0.411720000000    -0.508826   
O52      O      0.995290000000     0.468080000000     0.475950000000    -0.480686   
O53      O      0.064420000000     0.432240000000     0.395460000000    -0.501917   
O54      O      0.035360000000     0.510770000000     0.436440000000    -0.473348   
O55      O      0.985230000000     0.375900000000     0.440580000000    -0.492732   
O56      O      0.045380000000     0.474060000000     0.378320000000    -0.494014   
O57      O      0.979680000000     0.623510000000     0.438340000000    -0.48337    
O58      O      0.003530000000     0.586350000000     0.457120000000    -0.502862   
O59      O      0.888110000000     0.565260000000     0.503360000000    -0.501328   
O60      O      0.915550000000     0.523180000000     0.455940000000    -0.476046   
O61      O      0.002050000000     0.633160000000     0.525130000000    -0.507534   
O62      O      0.944810000000     0.519690000000     0.504680000000    -0.466353   
O63      O      0.921980000000     0.618970000000     0.470220000000    -0.486378   
O64      O      0.956500000000     0.581980000000     0.554210000000    -0.498682   
O65      O      0.721510000000     0.174500000000     0.343430000000    -0.498299   
O66      O      0.728930000000     0.128300000000     0.370600000000    -0.504621   
O67      O      0.780250000000     0.245560000000     0.391920000000    -0.501593   
O68      O      0.716330000000     0.221770000000     0.442200000000    -0.477234   
O69      O      0.684090000000     0.124020000000     0.438370000000    -0.500645   
O70      O      0.679170000000     0.189810000000     0.396200000000    -0.466046   
O71      O      0.797690000000     0.207180000000     0.420300000000    -0.487781   
O72      O      0.742220000000     0.154050000000     0.461260000000    -0.487762   
O73      O      0.546700000000     0.103340000000     0.570210000000    -0.495747   
O74      O      0.488190000000     0.077320000000     0.548970000000    -0.501902   
O75      O      0.511660000000     0.158670000000     0.497530000000    -0.488166   
O76      O      0.596520000000     0.158260000000     0.476300000000    -0.48213    
O77      O      0.505030000000     0.101320000000     0.454060000000    -0.489614   
O78      O      0.594810000000     0.112260000000     0.511910000000    -0.471153   
O79      O      0.561250000000     0.182860000000     0.534310000000    -0.500338   
O80      O      0.514360000000     0.055890000000     0.480510000000    -0.503906   
O81      O      0.419210000000     0.953710000000     0.206590000000    -0.486433   
O82      O      0.477930000000     0.981770000000     0.227940000000    -0.503578   
O83      O      0.364110000000     0.899690000000     0.247430000000    -0.4881     
O84      O      0.441110000000     0.882510000000     0.222990000000    -0.478814   
O85      O      0.433690000000     0.978300000000     0.296600000000    -0.505119   
O86      O      0.481470000000     0.913860000000     0.267100000000    -0.470539   
O87      O      0.381110000000     0.862960000000     0.279280000000    -0.502869   
O88      O      0.445830000000     0.934620000000     0.322360000000    -0.498018   
O89      O      0.649380000000     0.052860000000     0.186840000000    -0.495707   
O90      O      0.656850000000     0.006290000000     0.213560000000    -0.487966   
O91      O      0.600060000000     0.925280000000     0.133370000000    -0.500448   
O92      O      0.565770000000     0.951850000000     0.193440000000    -0.482513   
O93      O      0.673080000000     0.031290000000     0.119180000000    -0.501146   
O94      O      0.567020000000     0.996540000000     0.156390000000    -0.472286   
O95      O      0.649120000000     0.948980000000     0.170740000000    -0.489228   
O96      O      0.614670000000     0.003970000000     0.097390000000    -0.492645   
O97      O      0.564620000000     0.426350000000     0.930970000000    -0.50073    
O98      O      0.520920000000     0.430250000000     0.963090000000    -0.498941   
O99      O      0.578920000000     0.374270000000     0.024590000000    -0.505023   
O100     O      0.626580000000     0.477190000000     0.012860000000    -0.463329   
O101     O      0.563680000000     0.470690000000     0.029650000000    -0.482025   
O102     O      0.627950000000     0.438350000000     0.970540000000    -0.470089   
O103     O      0.530400000000     0.351340000000     0.986580000000    -0.504833   
O104     O      0.531400000000     0.408410000000     0.049110000000    -0.49937    
O105     O      0.694740000000     0.632690000000     0.968940000000    -0.499416   
O106     O      0.637500000000     0.578800000000     0.966100000000    -0.47966    
O107     O      0.718500000000     0.565170000000     0.957000000000    -0.517192   
O108     O      0.629600000000     0.521180000000     0.929040000000    -0.472477   
O109     O      0.659530000000     0.624870000000     0.894320000000    -0.505084   
O110     O      0.668700000000     0.530980000000     0.884070000000    -0.479839   
O111     O      0.750800000000     0.619330000000     0.923780000000    -0.497937   
O112     O      0.695340000000     0.609540000000     0.860960000000    -0.493451   
O113     O      0.464110000000     0.493130000000     0.804340000000    -0.493454   
O114     O      0.511450000000     0.493260000000     0.774650000000    -0.511227   
O115     O      0.443680000000     0.543590000000     0.712190000000    -0.511302   
O116     O      0.492490000000     0.581650000000     0.780190000000    -0.481859   
O117     O      0.474990000000     0.473510000000     0.706870000000    -0.501145   
O118     O      0.540330000000     0.584800000000     0.749840000000    -0.485546   
O119     O      0.413160000000     0.491640000000     0.748390000000    -0.493867   
O120     O      0.512100000000     0.536030000000     0.689670000000    -0.485357   
O121     O      0.579820000000     0.643390000000     0.622860000000    -0.490015   
O122     O      0.637630000000     0.695460000000     0.627930000000    -0.498005   
O123     O      0.582720000000     0.733660000000     0.641920000000    -0.50187    
O124     O      0.531640000000     0.676470000000     0.689820000000    -0.472388   
O125     O      0.634000000000     0.668390000000     0.702780000000    -0.499973   
O126     O      0.535380000000     0.623440000000     0.676520000000    -0.45821    
O127     O      0.628250000000     0.755830000000     0.683210000000    -0.503338   
O128     O      0.601500000000     0.687160000000     0.737230000000    -0.505293   
O129     O      0.204130000000     0.525850000000     0.621140000000    -0.498213   
O130     O      0.159030000000     0.474180000000     0.650090000000    -0.506599   
O131     O      0.272060000000     0.541030000000     0.669880000000    -0.501519   
O132     O      0.246300000000     0.584270000000     0.719230000000    -0.476614   
O133     O      0.157870000000     0.521820000000     0.718340000000    -0.503441   
O134     O      0.216100000000     0.588000000000     0.671350000000    -0.46606    
O135     O      0.239920000000     0.489990000000     0.706490000000    -0.485473   
O136     O      0.180410000000     0.483190000000     0.736280000000    -0.48269    
O137     O      0.116140000000     0.634400000000     0.797110000000    -0.494247   
O138     O      0.096180000000     0.675320000000     0.779500000000    -0.502127   
O139     O      0.194700000000     0.696360000000     0.764320000000    -0.508198   
O140     O      0.166510000000     0.640200000000     0.699880000000    -0.481704   
O141     O      0.072600000000     0.630630000000     0.710690000000    -0.502963   
O142     O      0.125580000000     0.597110000000     0.738560000000    -0.474721   
O143     O      0.175680000000     0.731880000000     0.733200000000    -0.492651   
O144     O      0.118680000000     0.683080000000     0.682940000000    -0.493014   
O145     O      0.088350000000     0.477070000000     0.964580000000    -0.503991   
O146     O      0.042210000000     0.424590000000     0.992240000000    -0.493215   
O147     O      0.965950000000     0.412520000000     0.911710000000    -0.508713   
O148     O      0.995290000000     0.468070000000     0.975950000000    -0.480743   
O149     O      0.064420000000     0.432240000000     0.895460000000    -0.502013   
O150     O      0.035360000000     0.510770000000     0.936440000000    -0.473326   
O151     O      0.985230000000     0.375900000000     0.940580000000    -0.492715   
O152     O      0.045380000000     0.474060000000     0.878320000000    -0.494058   
O153     O      0.979690000000     0.623510000000     0.938330000000    -0.483432   
O154     O      0.003520000000     0.586350000000     0.957120000000    -0.503157   
O155     O      0.888110000000     0.565260000000     0.003360000000    -0.500848   
O156     O      0.915550000000     0.523180000000     0.955940000000    -0.47591    
O157     O      0.002050000000     0.633160000000     0.025130000000    -0.507287   
O158     O      0.944810000000     0.519690000000     0.004680000000    -0.465868   
O159     O      0.921980000000     0.618970000000     0.970220000000    -0.486295   
O160     O      0.956500000000     0.581980000000     0.054210000000    -0.498505   
O161     O      0.721510000000     0.174500000000     0.843430000000    -0.498278   
O162     O      0.728930000000     0.128300000000     0.870600000000    -0.504719   
O163     O      0.780250000000     0.245560000000     0.891920000000    -0.501544   
O164     O      0.716330000000     0.221770000000     0.942200000000    -0.477182   
O165     O      0.684080000000     0.124020000000     0.938370000000    -0.500404   
O166     O      0.679180000000     0.189810000000     0.896200000000    -0.466034   
O167     O      0.797690000000     0.207180000000     0.920300000000    -0.487972   
O168     O      0.742220000000     0.154050000000     0.961260000000    -0.487849   
O169     O      0.546700000000     0.103340000000     0.070210000000    -0.495725   
O170     O      0.488190000000     0.077320000000     0.048970000000    -0.501948   
O171     O      0.511650000000     0.158670000000     0.997540000000    -0.488586   
O172     O      0.596520000000     0.158260000000     0.976300000000    -0.48226    
O173     O      0.505030000000     0.101320000000     0.954060000000    -0.489808   
O174     O      0.594810000000     0.112260000000     0.011910000000    -0.470898   
O175     O      0.561250000000     0.182860000000     0.034300000000    -0.50059    
O176     O      0.514360000000     0.055890000000     0.980510000000    -0.504156   
O177     O      0.419210000000     0.953710000000     0.706590000000    -0.486505   
O178     O      0.477930000000     0.981770000000     0.727940000000    -0.503515   
O179     O      0.364110000000     0.899690000000     0.747430000000    -0.488246   
O180     O      0.441110000000     0.882510000000     0.722990000000    -0.478743   
O181     O      0.433690000000     0.978300000000     0.796600000000    -0.505186   
O182     O      0.481470000000     0.913860000000     0.767100000000    -0.470394   
O183     O      0.381110000000     0.862960000000     0.779280000000    -0.502921   
O184     O      0.445830000000     0.934620000000     0.822360000000    -0.497997   
O185     O      0.649380000000     0.052860000000     0.686840000000    -0.495709   
O186     O      0.656850000000     0.006290000000     0.713560000000    -0.487971   
O187     O      0.600060000000     0.925280000000     0.633370000000    -0.500468   
O188     O      0.565770000000     0.951850000000     0.693440000000    -0.482516   
O189     O      0.673080000000     0.031290000000     0.619180000000    -0.501164   
O190     O      0.567020000000     0.996540000000     0.656390000000    -0.472294   
O191     O      0.649120000000     0.948980000000     0.670740000000    -0.489238   
O192     O      0.614670000000     0.003970000000     0.597390000000    -0.492661   


