data_structure

_audit_creation_method RASPA-1.0
_audit_creation_date 2023-6-5
_audit_author_name 'Poobodin Mano'

_cell_length_a    31.932
_cell_length_b    32.0149
_cell_length_c    33.2343
_cell_angle_alpha 89.5537
_cell_angle_beta  90.4464
_cell_angle_gamma 89.9991
_cell_volume      33973.4

_symmetry_cell_setting          triclinic
_symmetry_space_group_name_Hall 'P 1'
_symmetry_space_group_name_H-M  'P 1'
_symmetry_Int_Tables_number     1

_symmetry_equiv_pos_as_xyz 'x,y,z'

loop_
_atom_site_label
_atom_site_type_symbol
_atom_site_fract_x
_atom_site_fract_y
_atom_site_fract_z
_atom_site_charge
C1       C      0.320800000000     0.406560000000     0.007440000000     0.402892   
C2       C      0.289440000000     0.281170000000     0.447650000000     0.40577    
C3       C      0.412890000000     0.319040000000     0.505200000000     0.407158   
C4       C      0.291760000000     0.283350000000     0.071010000000     0.406925   
C5       C      0.319270000000     0.579550000000     0.507240000000     0.415244   
C6       C      0.283820000000     0.699890000000     0.073030000000     0.4164     
C7       C      0.408310000000     0.671900000000     0.007070000000     0.411496   
C8       C      0.282860000000     0.703390000000     0.449430000000     0.405281   
C9       C      0.586290000000     0.321300000000     0.002160000000     0.411753   
C10      C      0.709800000000     0.285570000000     0.444790000000     0.406316   
C11      C      0.677100000000     0.410690000000     0.503720000000     0.406873   
C12      C      0.708120000000     0.287350000000     0.068260000000     0.406703   
C13      C      0.673760000000     0.583640000000     0.002810000000     0.4116     
C14      C      0.704260000000     0.709270000000     0.445310000000     0.405554   
C15      C      0.581760000000     0.672720000000     0.506310000000     0.406978   
C16      C      0.705930000000     0.705060000000     0.068740000000     0.407522   
C17      C      0.823540000000     0.083590000000     0.255080000000     0.40592    
C18      C      0.788450000000     0.204200000000     0.319690000000     0.416261   
C19      C      0.912850000000     0.175110000000     0.256460000000     0.407055   
C20      C      0.786420000000     0.206230000000     0.196090000000     0.41376    
C21      C      0.908340000000     0.819690000000     0.258370000000     0.406545   
C22      C      0.782760000000     0.790270000000     0.318710000000     0.414746   
C23      C      0.819210000000     0.910660000000     0.253150000000     0.415412   
C24      C      0.786920000000     0.784120000000     0.195010000000     0.415328   
C25      C      0.081720000000     0.817930000000     0.260570000000     0.41512    
C26      C      0.204610000000     0.781940000000     0.197450000000     0.406784   
C27      C      0.173530000000     0.906670000000     0.256020000000     0.406909   
C28      C      0.203010000000     0.781790000000     0.321010000000     0.41466    
C29      C      0.086260000000     0.173460000000     0.255440000000     0.415216   
C30      C      0.210460000000     0.199810000000     0.321540000000     0.415977   
C31      C      0.174190000000     0.079700000000     0.254610000000     0.414881   
C32      C      0.213440000000     0.202570000000     0.197800000000     0.414937   
C33      C      0.176070000000     0.971540000000     0.289880000000     0.0269069  
C34      C      0.175620000000     0.970410000000     0.219050000000    -0.00483856 
C35      C      0.176110000000     0.015030000000     0.288960000000     0.0304931  
C36      C      0.175970000000     0.014400000000     0.217620000000     0.112241   
C37      C      0.176620000000     0.034970000000     0.176430000000    -0.200036   
C38      C      0.973510000000     0.818990000000     0.224690000000     0.0268144  
C39      C      0.972010000000     0.814630000000     0.295430000000    -0.00488399 
C40      C      0.017110000000     0.818400000000     0.225800000000     0.030548   
C41      C      0.016080000000     0.813680000000     0.297030000000     0.112985   
C42      C      0.036460000000     0.809480000000     0.338180000000    -0.200596   
C43      C      0.821840000000     0.018080000000     0.288780000000     0.0265135  
C44      C      0.818420000000     0.020650000000     0.218010000000    -0.00561418 
C45      C      0.820510000000     0.974640000000     0.287730000000     0.0304875  
C46      C      0.816710000000     0.976730000000     0.216460000000     0.11307    
C47      C      0.813130000000     0.957030000000     0.175290000000    -0.201642   
C48      C      0.978330000000     0.173270000000     0.290650000000     0.0276201  
C49      C      0.976330000000     0.181900000000     0.220240000000    -0.0046963  
C50      C      0.021950000000     0.173000000000     0.289830000000     0.0313209  
C51      C      0.020410000000     0.182090000000     0.218970000000     0.113575   
C52      C      0.040520000000     0.188270000000     0.178230000000    -0.201492   
C53      C      0.759130000000     0.714600000000     0.397930000000     0.0269593  
C54      C      0.706620000000     0.766190000000     0.399100000000    -0.00501661 
C55      C      0.778440000000     0.735380000000     0.366140000000     0.0308852  
C56      C      0.725800000000     0.787600000000     0.366950000000     0.113646   
C57      C      0.705160000000     0.827560000000     0.352260000000    -0.201816   
C58      C      0.710580000000     0.759590000000     0.116460000000     0.0269564  
C59      C      0.762560000000     0.707460000000     0.115380000000    -0.00492404 
C60      C      0.731390000000     0.779060000000     0.148160000000     0.0307781  
C61      C      0.783940000000     0.726740000000     0.147460000000     0.113668   
C62      C      0.823960000000     0.706190000000     0.162320000000    -0.201796   
C63      C      0.765160000000     0.279960000000     0.397910000000     0.0274672  
C64      C      0.712220000000     0.228800000000     0.399400000000    -0.00491679 
C65      C      0.784480000000     0.259080000000     0.366440000000     0.0313695  
C66      C      0.731430000000     0.207260000000     0.367710000000     0.113009   
C67      C      0.710380000000     0.167600000000     0.353380000000    -0.200677   
C68      C      0.762860000000     0.282340000000     0.116780000000     0.0276954  
C69      C      0.709500000000     0.231610000000     0.115710000000    -0.0046112  
C70      C      0.782030000000     0.261600000000     0.149010000000     0.0313673  
C71      C      0.728450000000     0.210310000000     0.148300000000     0.113244   
C72      C      0.706700000000     0.171360000000     0.163710000000    -0.200639   
C73      C      0.676630000000     0.475440000000     0.037870000000     0.0271551  
C74      C      0.680270000000     0.474620000000     0.467150000000    -0.00490973 
C75      C      0.675850000000     0.518930000000     0.037070000000     0.0311989  
C76      C      0.679740000000     0.518610000000     0.465850000000     0.114098   
C77      C      0.682590000000     0.539380000000     0.424870000000    -0.202152   
C78      C      0.277130000000     0.759290000000     0.402420000000     0.0268375  
C79      C      0.227170000000     0.705190000000     0.401810000000    -0.00531586 
C80      C      0.256710000000     0.778490000000     0.370030000000     0.0307392  
C81      C      0.206080000000     0.724280000000     0.369190000000     0.11238    
C82      C      0.167120000000     0.702690000000     0.353410000000    -0.199812   
C83      C      0.261400000000     0.774630000000     0.152400000000     0.0271701  
C84      C      0.205830000000     0.726340000000     0.150630000000    -0.00507095 
C85      C      0.280890000000     0.753560000000     0.121150000000     0.030954   
C86      C      0.225240000000     0.704560000000     0.119200000000     0.113165   
C87      C      0.202850000000     0.666360000000     0.103170000000    -0.201267   
C88      C      0.517200000000     0.670660000000     0.041150000000     0.0270118  
C89      C      0.517310000000     0.678920000000     0.470690000000    -0.00509632 
C90      C      0.473560000000     0.670690000000     0.040790000000     0.030872   
C91      C      0.473220000000     0.679370000000     0.469860000000     0.113562   
C92      C      0.452070000000     0.685370000000     0.429270000000    -0.201558   
C93      C      0.234190000000     0.275720000000     0.399830000000     0.027473   
C94      C      0.286410000000     0.223850000000     0.402840000000    -0.00463197 
C95      C      0.214740000000     0.254820000000     0.368170000000     0.0313048  
C96      C      0.267030000000     0.202250000000     0.370970000000     0.11315    
C97      C      0.287440000000     0.162050000000     0.357530000000    -0.200823   
C98      C      0.237210000000     0.278540000000     0.118850000000     0.0273331  
C99      C      0.290440000000     0.227650000000     0.118540000000    -0.0047203  
C100     C      0.218040000000     0.257910000000     0.150830000000     0.0307258  
C101     C      0.271450000000     0.206430000000     0.150870000000     0.112336   
C102     C      0.293010000000     0.167350000000     0.166570000000    -0.199741   
C103     C      0.478840000000     0.318200000000     0.538440000000     0.0274771  
C104     C      0.475850000000     0.318310000000     0.467630000000    -0.00493399 
C105     C      0.522400000000     0.318750000000     0.537100000000     0.0314121  
C106     C      0.519900000000     0.318650000000     0.465780000000     0.113674   
C107     C      0.539450000000     0.318270000000     0.424400000000    -0.201743   
C108     C      0.321620000000     0.471170000000     0.041890000000     0.0269271  
C109     C      0.314100000000     0.470520000000     0.471360000000    -0.00488718 
C110     C      0.321170000000     0.514670000000     0.041270000000     0.0305982  
C111     C      0.313330000000     0.514490000000     0.470270000000     0.113463   
C112     C      0.307700000000     0.535290000000     0.429480000000    -0.201265   
C113     C      0.320800000000     0.406560000000     0.507440000000     0.406285   
C114     C      0.289440000000     0.281170000000     0.947650000000     0.405539   
C115     C      0.412890000000     0.319040000000     0.005190000000     0.403757   
C116     C      0.291760000000     0.283350000000     0.571010000000     0.40713    
C117     C      0.319270000000     0.579540000000     0.007240000000     0.411861   
C118     C      0.283820000000     0.699900000000     0.573030000000     0.416596   
C119     C      0.408300000000     0.671900000000     0.507070000000     0.414983   
C120     C      0.282860000000     0.703390000000     0.949430000000     0.404978   
C121     C      0.586290000000     0.321300000000     0.502160000000     0.415195   
C122     C      0.709800000000     0.285570000000     0.944790000000     0.405931   
C123     C      0.677100000000     0.410690000000     0.003720000000     0.403469   
C124     C      0.708120000000     0.287350000000     0.568260000000     0.40712    
C125     C      0.673760000000     0.583650000000     0.502810000000     0.414986   
C126     C      0.704260000000     0.709270000000     0.945320000000     0.405273   
C127     C      0.581760000000     0.672720000000     0.006310000000     0.403582   
C128     C      0.705930000000     0.705060000000     0.568740000000     0.407826   
C129     C      0.823540000000     0.083590000000     0.755090000000     0.405925   
C130     C      0.788450000000     0.204200000000     0.819690000000     0.416462   
C131     C      0.912850000000     0.175110000000     0.756460000000     0.407072   
C132     C      0.786420000000     0.206230000000     0.696090000000     0.413803   
C133     C      0.908340000000     0.819700000000     0.758370000000     0.406399   
C134     C      0.782760000000     0.790270000000     0.818710000000     0.414832   
C135     C      0.819210000000     0.910670000000     0.753150000000     0.415283   
C136     C      0.786920000000     0.784130000000     0.695010000000     0.415388   
C137     C      0.081720000000     0.817940000000     0.760570000000     0.41513    
C138     C      0.204610000000     0.781940000000     0.697450000000     0.406901   
C139     C      0.173530000000     0.906670000000     0.756020000000     0.406982   
C140     C      0.203010000000     0.781790000000     0.821010000000     0.414748   
C141     C      0.086260000000     0.173450000000     0.755440000000     0.415504   
C142     C      0.210460000000     0.199810000000     0.821540000000     0.41604    
C143     C      0.174190000000     0.079700000000     0.754610000000     0.415159   
C144     C      0.213440000000     0.202570000000     0.697790000000     0.414945   
C145     C      0.176070000000     0.971540000000     0.789880000000     0.0269628  
C146     C      0.175620000000     0.970420000000     0.719050000000    -0.00489374 
C147     C      0.176110000000     0.015030000000     0.788960000000     0.0305726  
C148     C      0.175970000000     0.014400000000     0.717620000000     0.112402   
C149     C      0.176620000000     0.034970000000     0.676430000000    -0.200178   
C150     C      0.973510000000     0.818990000000     0.724690000000     0.026862   
C151     C      0.972010000000     0.814620000000     0.795430000000    -0.00485881 
C152     C      0.017110000000     0.818400000000     0.725800000000     0.0306092  
C153     C      0.016080000000     0.813680000000     0.797030000000     0.113103   
C154     C      0.036460000000     0.809480000000     0.838180000000    -0.200649   
C155     C      0.821840000000     0.018080000000     0.788780000000     0.0265577  
C156     C      0.818420000000     0.020650000000     0.718010000000    -0.00559631 
C157     C      0.820510000000     0.974640000000     0.787730000000     0.0305663  
C158     C      0.816710000000     0.976730000000     0.716460000000     0.113209   
C159     C      0.813130000000     0.957030000000     0.675290000000    -0.201844   
C160     C      0.978330000000     0.173270000000     0.790640000000     0.0277673  
C161     C      0.976330000000     0.181900000000     0.720240000000    -0.00467285 
C162     C      0.021950000000     0.173000000000     0.789830000000     0.0313599  
C163     C      0.020410000000     0.182090000000     0.718970000000     0.1137     
C164     C      0.040520000000     0.188270000000     0.678230000000    -0.20162    
C165     C      0.759130000000     0.714600000000     0.897930000000     0.0270745  
C166     C      0.706620000000     0.766190000000     0.899100000000    -0.00493029 
C167     C      0.778440000000     0.735380000000     0.866140000000     0.0310277  
C168     C      0.725800000000     0.787600000000     0.866950000000     0.11379    
C169     C      0.705160000000     0.827560000000     0.852260000000    -0.201942   
C170     C      0.710570000000     0.759590000000     0.616460000000     0.0271579  
C171     C      0.762560000000     0.707460000000     0.615380000000    -0.0048942  
C172     C      0.731390000000     0.779060000000     0.648160000000     0.0308459  
C173     C      0.783940000000     0.726740000000     0.647460000000     0.11384    
C174     C      0.823960000000     0.706190000000     0.662320000000    -0.201944   
C175     C      0.765160000000     0.279960000000     0.897900000000     0.0275657  
C176     C      0.712220000000     0.228800000000     0.899400000000    -0.00484567 
C177     C      0.784480000000     0.259080000000     0.866440000000     0.0315134  
C178     C      0.731430000000     0.207260000000     0.867710000000     0.113215   
C179     C      0.710380000000     0.167600000000     0.853380000000    -0.200853   
C180     C      0.762860000000     0.282340000000     0.616780000000     0.0277888  
C181     C      0.709500000000     0.231610000000     0.615710000000    -0.00445749 
C182     C      0.782030000000     0.261600000000     0.649010000000     0.0314663  
C183     C      0.728450000000     0.210310000000     0.648300000000     0.113352   
C184     C      0.706700000000     0.171360000000     0.663710000000    -0.20072    
C185     C      0.676630000000     0.475440000000     0.537870000000     0.0275865  
C186     C      0.680270000000     0.474620000000     0.967150000000    -0.00308167 
C187     C      0.675860000000     0.518930000000     0.537070000000     0.0316208  
C188     C      0.679740000000     0.518610000000     0.965850000000     0.115867   
C189     C      0.682590000000     0.539380000000     0.924870000000    -0.202774   
C190     C      0.277130000000     0.759290000000     0.902420000000     0.0269378  
C191     C      0.227170000000     0.705190000000     0.901810000000    -0.00521798 
C192     C      0.256710000000     0.778490000000     0.870030000000     0.0309056  
C193     C      0.206080000000     0.724280000000     0.869190000000     0.11252    
C194     C      0.167120000000     0.702690000000     0.853410000000    -0.199949   
C195     C      0.261400000000     0.774630000000     0.652400000000     0.0272797  
C196     C      0.205830000000     0.726340000000     0.650630000000    -0.00503808 
C197     C      0.280890000000     0.753570000000     0.621150000000     0.0310214  
C198     C      0.225240000000     0.704560000000     0.619200000000     0.113385   
C199     C      0.202850000000     0.666360000000     0.603170000000    -0.201442   
C200     C      0.517200000000     0.670660000000     0.541150000000     0.0273884  
C201     C      0.517320000000     0.678920000000     0.970690000000    -0.00317603 
C202     C      0.473560000000     0.670690000000     0.540780000000     0.0313877  
C203     C      0.473220000000     0.679370000000     0.969860000000     0.115215   
C204     C      0.452070000000     0.685370000000     0.929270000000    -0.201873   
C205     C      0.234190000000     0.275720000000     0.899830000000     0.0275921  
C206     C      0.286410000000     0.223850000000     0.902840000000    -0.00456088 
C207     C      0.214740000000     0.254820000000     0.868170000000     0.0314403  
C208     C      0.267030000000     0.202250000000     0.870970000000     0.113366   
C209     C      0.287440000000     0.162050000000     0.857530000000    -0.20102    
C210     C      0.237210000000     0.278540000000     0.618850000000     0.0274613  
C211     C      0.290440000000     0.227650000000     0.618540000000    -0.00463075 
C212     C      0.218040000000     0.257910000000     0.650830000000     0.0308145  
C213     C      0.271450000000     0.206430000000     0.650870000000     0.112489   
C214     C      0.293010000000     0.167350000000     0.666570000000    -0.199914   
C215     C      0.478840000000     0.318200000000     0.038440000000     0.0270621  
C216     C      0.475850000000     0.318310000000     0.967630000000    -0.00308691 
C217     C      0.522400000000     0.318750000000     0.037100000000     0.0309763  
C218     C      0.519910000000     0.318650000000     0.965780000000     0.115439   
C219     C      0.539450000000     0.318270000000     0.924400000000    -0.202307   
C220     C      0.321620000000     0.471170000000     0.541890000000     0.0273843  
C221     C      0.314100000000     0.470530000000     0.971360000000    -0.00306429 
C222     C      0.321170000000     0.514680000000     0.541280000000     0.0309703  
C223     C      0.313330000000     0.514490000000     0.970260000000     0.115185   
C224     C      0.307700000000     0.535290000000     0.929480000000    -0.201761   
H1       H      0.176210000000     0.030910000000     0.317680000000     0.041096   
H2       H      0.176110000000     0.956020000000     0.319010000000     0.0417953  
H3       H      0.175410000000     0.953270000000     0.191000000000     0.0489357  
H4       H      0.204580000000     0.055370000000     0.173620000000     0.0879015  
H5       H      0.178440000000     0.011780000000     0.151800000000     0.0693936  
H6       H      0.147450000000     0.053220000000     0.171420000000     0.0864873  
H7       H      0.033200000000     0.820150000000     0.197210000000     0.0414753  
H8       H      0.958100000000     0.821060000000     0.195550000000     0.0405226  
H9       H      0.954690000000     0.813030000000     0.323370000000     0.0494805  
H10      H      0.054160000000     0.838330000000     0.345450000000     0.0887072  
H11      H      0.013090000000     0.804790000000     0.362390000000     0.0699506  
H12      H      0.057440000000     0.781820000000     0.339080000000     0.0878567  
H13      H      0.821570000000     0.958190000000     0.316380000000     0.0408546  
H14      H      0.823770000000     0.033000000000     0.317930000000     0.0413044  
H15      H      0.817490000000     0.038360000000     0.190030000000     0.0482914  
H16      H      0.784750000000     0.937070000000     0.173650000000     0.090266   
H17      H      0.810040000000     0.980760000000     0.150870000000     0.0698918  
H18      H      0.841670000000     0.938480000000     0.168940000000     0.0886673  
H19      H      0.038240000000     0.169190000000     0.318390000000     0.0423213  
H20      H      0.963120000000     0.169730000000     0.319540000000     0.0427226  
H21      H      0.958810000000     0.185500000000     0.192310000000     0.0496924  
H22      H      0.057330000000     0.159440000000     0.169390000000     0.087484   
H23      H      0.017060000000     0.195120000000     0.154200000000     0.0709617  
H24      H      0.062260000000     0.215310000000     0.179020000000     0.0916921  
H25      H      0.806800000000     0.721550000000     0.354390000000     0.0416612  
H26      H      0.773370000000     0.685980000000     0.409120000000     0.0413947  
H27      H      0.678160000000     0.778910000000     0.411780000000     0.0495325  
H28      H      0.695020000000     0.824220000000     0.320420000000     0.088569   
H29      H      0.676780000000     0.835390000000     0.369800000000     0.0705863  
H30      H      0.727130000000     0.854220000000     0.355540000000     0.090703   
H31      H      0.717460000000     0.807350000000     0.159840000000     0.0403755  
H32      H      0.681820000000     0.773630000000     0.105220000000     0.0418231  
H33      H      0.775430000000     0.679090000000     0.102770000000     0.049705   
H34      H      0.820810000000     0.696850000000     0.194390000000     0.0890647  
H35      H      0.831430000000     0.677370000000     0.145390000000     0.0710233  
H36      H      0.850830000000     0.727800000000     0.158340000000     0.0909997  
H37      H      0.813030000000     0.272650000000     0.354630000000     0.0426833  
H38      H      0.779530000000     0.308440000000     0.408830000000     0.042959   
H39      H      0.683560000000     0.216280000000     0.412050000000     0.0483506  
H40      H      0.731860000000     0.140600000000     0.357420000000     0.0908404  
H41      H      0.681600000000     0.160230000000     0.370620000000     0.0692782  
H42      H      0.700750000000     0.171040000000     0.321350000000     0.08622    
H43      H      0.810760000000     0.274980000000     0.160850000000     0.04291    
H44      H      0.777480000000     0.310580000000     0.105370000000     0.0427963  
H45      H      0.680710000000     0.219220000000     0.102970000000     0.0494086  
H46      H      0.698780000000     0.174950000000     0.195970000000     0.0863636  
H47      H      0.676800000000     0.165200000000     0.147500000000     0.0696612  
H48      H      0.726990000000     0.143630000000     0.159310000000     0.0907794  
H49      H      0.673950000000     0.534680000000     0.065780000000     0.0428014  
H50      H      0.675350000000     0.459790000000     0.066900000000     0.0429705  
H51      H      0.682050000000     0.457610000000     0.439090000000     0.0493633  
H52      H      0.709670000000     0.561120000000     0.424080000000     0.0921121  
H53      H      0.687520000000     0.516420000000     0.400450000000     0.0712161  
H54      H      0.653020000000     0.556240000000     0.417800000000     0.0889134  
H55      H      0.269950000000     0.807460000000     0.358740000000     0.0422203  
H56      H      0.304970000000     0.774150000000     0.414530000000     0.0412897  
H57      H      0.214960000000     0.676120000000     0.413970000000     0.0478035  
H58      H      0.171660000000     0.693340000000     0.321640000000     0.0875078  
H59      H      0.159740000000     0.673750000000     0.370620000000     0.0686449  
H60      H      0.139570000000     0.723610000000     0.356110000000     0.0877225  
H61      H      0.310560000000     0.765910000000     0.110750000000     0.0420072  
H62      H      0.276790000000     0.802020000000     0.164580000000     0.041987   
H63      H      0.176060000000     0.715030000000     0.161900000000     0.0488454  
H64      H      0.222860000000     0.638260000000     0.107210000000     0.0905505  
H65      H      0.173140000000     0.659960000000     0.119270000000     0.0700963  
H66      H      0.194560000000     0.671080000000     0.070950000000     0.0875611  
H67      H      0.458020000000     0.667140000000     0.069520000000     0.0423218  
H68      H      0.533190000000     0.667200000000     0.069890000000     0.0426546  
H69      H      0.534080000000     0.682280000000     0.442570000000     0.0491954  
H70      H      0.430790000000     0.712770000000     0.429980000000     0.0918209  
H71      H      0.474940000000     0.691550000000     0.404910000000     0.0705577  
H72      H      0.434580000000     0.656710000000     0.420940000000     0.0876784  
H73      H      0.186460000000     0.268700000000     0.355670000000     0.0425056  
H74      H      0.220150000000     0.304500000000     0.410210000000     0.0429791  
H75      H      0.314810000000     0.211040000000     0.416190000000     0.0492373  
H76      H      0.297770000000     0.165090000000     0.325820000000     0.0867052  
H77      H      0.315680000000     0.154110000000     0.375790000000     0.0699257  
H78      H      0.265270000000     0.135560000000     0.360970000000     0.0908431  
H79      H      0.189380000000     0.271410000000     0.162260000000     0.0414574  
H80      H      0.222640000000     0.306810000000     0.107230000000     0.0423179  
H81      H      0.319160000000     0.215170000000     0.106180000000     0.0492254  
H82      H      0.272580000000     0.139730000000     0.161850000000     0.0876101  
H83      H      0.322880000000     0.161070000000     0.150790000000     0.0691807  
H84      H      0.300950000000     0.170870000000     0.198950000000     0.0859796  
H85      H      0.539060000000     0.318990000000     0.565670000000     0.0426488  
H86      H      0.464050000000     0.318020000000     0.567710000000     0.0427516  
H87      H      0.457930000000     0.318140000000     0.439750000000     0.0492493  
H88      H      0.560210000000     0.290670000000     0.421420000000     0.0909572  
H89      H      0.515590000000     0.316120000000     0.399990000000     0.0704681  
H90      H      0.557220000000     0.347610000000     0.919220000000     0.0890281  
H91      H      0.324220000000     0.530380000000     0.069950000000     0.0413567  
H92      H      0.324940000000     0.455430000000     0.070760000000     0.0426934  
H93      H      0.311230000000     0.453590000000     0.443310000000     0.0499022  
H94      H      0.336270000000     0.553250000000     0.421580000000     0.0877559  
H95      H      0.302440000000     0.512260000000     0.405120000000     0.0706176  
H96      H      0.279820000000     0.556000000000     0.429610000000     0.0912111  
H97      H      0.176210000000     0.030910000000     0.817680000000     0.0412496  
H98      H      0.176110000000     0.956010000000     0.819010000000     0.0419707  
H99      H      0.175410000000     0.953270000000     0.691010000000     0.0491052  
H100     H      0.204580000000     0.055370000000     0.673620000000     0.0880745  
H101     H      0.178440000000     0.011780000000     0.651800000000     0.069665   
H102     H      0.147450000000     0.053220000000     0.671420000000     0.0866667  
H103     H      0.033200000000     0.820150000000     0.697210000000     0.0416165  
H104     H      0.958100000000     0.821060000000     0.695550000000     0.0406734  
H105     H      0.954680000000     0.813030000000     0.823370000000     0.0496471  
H106     H      0.054160000000     0.838330000000     0.845450000000     0.0889036  
H107     H      0.013090000000     0.804780000000     0.862400000000     0.0702064  
H108     H      0.057440000000     0.781820000000     0.839080000000     0.0880356  
H109     H      0.821570000000     0.958190000000     0.816380000000     0.0410048  
H110     H      0.823770000000     0.033000000000     0.817930000000     0.0414735  
H111     H      0.817490000000     0.038360000000     0.690030000000     0.0484213  
H112     H      0.784750000000     0.937070000000     0.673650000000     0.090468   
H113     H      0.810040000000     0.980750000000     0.650870000000     0.0701984  
H114     H      0.841670000000     0.938480000000     0.668940000000     0.0888651  
H115     H      0.038240000000     0.169190000000     0.818390000000     0.0424977  
H116     H      0.963120000000     0.169730000000     0.819540000000     0.0428786  
H117     H      0.958810000000     0.185500000000     0.692310000000     0.0498236  
H118     H      0.057330000000     0.159440000000     0.669390000000     0.0876704  
H119     H      0.017060000000     0.195120000000     0.654200000000     0.071225   
H120     H      0.062260000000     0.215310000000     0.679020000000     0.0918697  
H121     H      0.806800000000     0.721560000000     0.854390000000     0.0417952  
H122     H      0.773380000000     0.685980000000     0.909120000000     0.0416484  
H123     H      0.678160000000     0.778910000000     0.911780000000     0.0497813  
H124     H      0.695020000000     0.824220000000     0.820420000000     0.0886735  
H125     H      0.676780000000     0.835380000000     0.869800000000     0.0708649  
H126     H      0.727130000000     0.854220000000     0.855540000000     0.0909359  
H127     H      0.717450000000     0.807350000000     0.659830000000     0.0404851  
H128     H      0.681820000000     0.773640000000     0.605220000000     0.0420124  
H129     H      0.775430000000     0.679090000000     0.602770000000     0.049918   
H130     H      0.820810000000     0.696860000000     0.694390000000     0.0891851  
H131     H      0.831430000000     0.677370000000     0.645390000000     0.0712589  
H132     H      0.850830000000     0.727800000000     0.658340000000     0.0912049  
H133     H      0.813030000000     0.272650000000     0.854630000000     0.0428212  
H134     H      0.779530000000     0.308440000000     0.908830000000     0.0432343  
H135     H      0.683560000000     0.216280000000     0.912050000000     0.0486008  
H136     H      0.731860000000     0.140600000000     0.857420000000     0.0910863  
H137     H      0.681600000000     0.160230000000     0.870610000000     0.0695721  
H138     H      0.700750000000     0.171040000000     0.821350000000     0.0863138  
H139     H      0.810760000000     0.274980000000     0.660850000000     0.0430269  
H140     H      0.777480000000     0.310580000000     0.605370000000     0.0430126  
H141     H      0.680710000000     0.219220000000     0.602970000000     0.0495969  
H142     H      0.698780000000     0.174950000000     0.695970000000     0.086436   
H143     H      0.676800000000     0.165200000000     0.647500000000     0.0698659  
H144     H      0.726990000000     0.143630000000     0.659310000000     0.090965   
H145     H      0.673950000000     0.534680000000     0.565780000000     0.0428302  
H146     H      0.675350000000     0.459790000000     0.566900000000     0.0429946  
H147     H      0.682050000000     0.457610000000     0.939090000000     0.0492568  
H148     H      0.709660000000     0.561120000000     0.924080000000     0.0925773  
H149     H      0.687520000000     0.516420000000     0.900450000000     0.0714831  
H150     H      0.653020000000     0.556240000000     0.917800000000     0.0893047  
H151     H      0.269950000000     0.807460000000     0.858750000000     0.0423467  
H152     H      0.304970000000     0.774150000000     0.914530000000     0.0415588  
H153     H      0.214960000000     0.676120000000     0.913980000000     0.0480485  
H154     H      0.171660000000     0.693340000000     0.821640000000     0.0876005  
H155     H      0.159740000000     0.673750000000     0.870610000000     0.0689256  
H156     H      0.139570000000     0.723610000000     0.856110000000     0.0879385  
H157     H      0.310560000000     0.765910000000     0.610750000000     0.042222   
H158     H      0.276790000000     0.802020000000     0.664580000000     0.0420954  
H159     H      0.176060000000     0.715030000000     0.661900000000     0.0489448  
H160     H      0.222860000000     0.638260000000     0.607210000000     0.0907344  
H161     H      0.173140000000     0.659960000000     0.619270000000     0.0703471  
H162     H      0.194560000000     0.671080000000     0.570950000000     0.0880247  
H163     H      0.458020000000     0.667140000000     0.569520000000     0.0423245  
H164     H      0.533190000000     0.667200000000     0.569890000000     0.0426908  
H165     H      0.534080000000     0.682280000000     0.942570000000     0.049062   
H166     H      0.430790000000     0.712770000000     0.929980000000     0.0922046  
H167     H      0.474950000000     0.691550000000     0.904910000000     0.0707407  
H168     H      0.434570000000     0.656700000000     0.920940000000     0.0879382  
H169     H      0.186460000000     0.268700000000     0.855670000000     0.0426453  
H170     H      0.220150000000     0.304500000000     0.910210000000     0.0432461  
H171     H      0.314810000000     0.211040000000     0.916180000000     0.0495085  
H172     H      0.297770000000     0.165090000000     0.825820000000     0.0868132  
H173     H      0.315680000000     0.154110000000     0.875780000000     0.0702431  
H174     H      0.265270000000     0.135560000000     0.860960000000     0.0911071  
H175     H      0.189380000000     0.271410000000     0.662260000000     0.0415663  
H176     H      0.222640000000     0.306810000000     0.607230000000     0.0425261  
H177     H      0.319160000000     0.215170000000     0.606180000000     0.0494232  
H178     H      0.272580000000     0.139730000000     0.661850000000     0.0877985  
H179     H      0.322870000000     0.161070000000     0.650790000000     0.0694313  
H180     H      0.300950000000     0.170870000000     0.698950000000     0.0860744  
H181     H      0.539060000000     0.318990000000     0.065670000000     0.0426286  
H182     H      0.464050000000     0.318020000000     0.067710000000     0.0427263  
H183     H      0.457930000000     0.318130000000     0.939750000000     0.0491362  
H184     H      0.560210000000     0.290670000000     0.921420000000     0.0913562  
H185     H      0.515590000000     0.316120000000     0.899990000000     0.0707161  
H186     H      0.557220000000     0.347610000000     0.419220000000     0.0886378  
H187     H      0.324220000000     0.530380000000     0.569950000000     0.0413829  
H188     H      0.324940000000     0.455440000000     0.570760000000     0.0426981  
H189     H      0.311230000000     0.453590000000     0.943310000000     0.0498071  
H190     H      0.336270000000     0.553250000000     0.921580000000     0.0881004  
H191     H      0.302440000000     0.512260000000     0.905120000000     0.070862   
H192     H      0.279820000000     0.556010000000     0.929610000000     0.0916137  
In1      In     0.328330000000     0.322430000000     0.508010000000     2.4149     
In2      In     0.323780000000     0.664100000000     0.510230000000     2.41916    
In3      In     0.671070000000     0.326410000000     0.504920000000     2.41639    
In4      In     0.666360000000     0.667980000000     0.506250000000     2.41467    
In5      In     0.828400000000     0.167870000000     0.257240000000     2.41589    
In6      In     0.823950000000     0.826090000000     0.256280000000     2.42131    
In7      In     0.166450000000     0.822480000000     0.258170000000     2.41939    
In8      In     0.170760000000     0.164290000000     0.257900000000     2.41967    
In9      In     0.328330000000     0.322430000000     0.008010000000     2.40688    
In10     In     0.323780000000     0.664100000000     0.010230000000     2.41115    
In11     In     0.671070000000     0.326410000000     0.004920000000     2.4082     
In12     In     0.666360000000     0.667970000000     0.006250000000     2.4064     
In13     In     0.828400000000     0.167870000000     0.757240000000     2.41612    
In14     In     0.823950000000     0.826090000000     0.756280000000     2.42114    
In15     In     0.166450000000     0.822480000000     0.758170000000     2.41956    
In16     In     0.170760000000     0.164290000000     0.757900000000     2.41999    
N1       N      0.175320000000     0.949370000000     0.254990000000    -0.171583   
N2       N      0.175520000000     0.036730000000     0.253180000000    -0.192744   
N3       N      0.951130000000     0.817630000000     0.259480000000    -0.171604   
N4       N      0.038650000000     0.816480000000     0.261660000000    -0.192583   
N5       N      0.821240000000     0.040930000000     0.253970000000    -0.171506   
N6       N      0.818520000000     0.953670000000     0.251890000000    -0.192883   
N7       N      0.955670000000     0.177000000000     0.255830000000    -0.171204   
N8       N      0.043230000000     0.176510000000     0.254250000000    -0.192536   
N9       N      0.723290000000     0.729970000000     0.414260000000    -0.171134   
N10      N      0.762080000000     0.771680000000     0.350360000000    -0.192453   
N11      N      0.726240000000     0.723950000000     0.100110000000    -0.171388   
N12      N      0.767970000000     0.763060000000     0.163810000000    -0.19289    
N13      N      0.729050000000     0.264860000000     0.414180000000    -0.171298   
N14      N      0.767930000000     0.222930000000     0.351080000000    -0.192634   
N15      N      0.726790000000     0.267230000000     0.100150000000    -0.171141   
N16      N      0.765370000000     0.225550000000     0.164770000000    -0.192022   
N17      N      0.678250000000     0.453420000000     0.502940000000    -0.171197   
N18      N      0.676630000000     0.540760000000     0.001370000000    -0.193182   
N19      N      0.262430000000     0.722650000000     0.418070000000    -0.171522   
N20      N      0.221410000000     0.761270000000     0.353130000000    -0.192331   
N21      N      0.223890000000     0.761090000000     0.166920000000    -0.171414   
N22      N      0.263130000000     0.718730000000     0.104270000000    -0.192796   
N23      N      0.538920000000     0.674220000000     0.506100000000    -0.171245   
N24      N      0.451330000000     0.674290000000     0.005420000000    -0.193293   
N25      N      0.270040000000     0.260320000000     0.416910000000    -0.17089    
N26      N      0.230910000000     0.218340000000     0.353390000000    -0.192636   
N27      N      0.273200000000     0.263300000000     0.102710000000    -0.171321   
N28      N      0.234610000000     0.221800000000     0.166820000000    -0.192658   
N29      N      0.455700000000     0.318370000000     0.503770000000    -0.171221   
N30      N      0.543210000000     0.319440000000     0.001120000000    -0.19322    
N31      N      0.318630000000     0.449250000000     0.006940000000    -0.171746   
N32      N      0.317720000000     0.536590000000     0.505750000000    -0.192716   
N33      N      0.175320000000     0.949370000000     0.754990000000    -0.17154    
N34      N      0.175530000000     0.036730000000     0.753180000000    -0.192793   
N35      N      0.951130000000     0.817630000000     0.759480000000    -0.171529   
N36      N      0.038650000000     0.816470000000     0.761660000000    -0.192572   
N37      N      0.821240000000     0.040930000000     0.753970000000    -0.171467   
N38      N      0.818520000000     0.953670000000     0.751890000000    -0.192921   
N39      N      0.955670000000     0.177000000000     0.755830000000    -0.171191   
N40      N      0.043230000000     0.176510000000     0.754250000000    -0.192567   
N41      N      0.723290000000     0.729970000000     0.914260000000    -0.170919   
N42      N      0.762090000000     0.771680000000     0.850360000000    -0.192459   
N43      N      0.726230000000     0.723960000000     0.600120000000    -0.171323   
N44      N      0.767970000000     0.763060000000     0.663810000000    -0.192851   
N45      N      0.729050000000     0.264860000000     0.914170000000    -0.171068   
N46      N      0.767930000000     0.222930000000     0.851080000000    -0.192659   
N47      N      0.726780000000     0.267230000000     0.600150000000    -0.171147   
N48      N      0.765370000000     0.225550000000     0.664770000000    -0.192009   
N49      N      0.678250000000     0.453420000000     0.002940000000    -0.171994   
N50      N      0.676640000000     0.540760000000     0.501370000000    -0.192308   
N51      N      0.262430000000     0.722650000000     0.918070000000    -0.17135    
N52      N      0.221410000000     0.761280000000     0.853130000000    -0.192339   
N53      N      0.223890000000     0.761090000000     0.666920000000    -0.171402   
N54      N      0.263130000000     0.718730000000     0.604270000000    -0.192786   
N55      N      0.538920000000     0.674220000000     0.006100000000    -0.172067   
N56      N      0.451330000000     0.674290000000     0.505420000000    -0.192477   
N57      N      0.270040000000     0.260320000000     0.916920000000    -0.170749   
N58      N      0.230910000000     0.218340000000     0.853390000000    -0.192632   
N59      N      0.273200000000     0.263300000000     0.602710000000    -0.171268   
N60      N      0.234610000000     0.221800000000     0.666820000000    -0.192695   
N61      N      0.455700000000     0.318370000000     0.003770000000    -0.172027   
N62      N      0.543210000000     0.319440000000     0.501120000000    -0.192401   
N63      N      0.318630000000     0.449250000000     0.506940000000    -0.170959   
N64      N      0.317720000000     0.536600000000     0.005750000000    -0.193612   
O1       O      0.276760000000     0.316040000000     0.054970000000    -0.499638   
O2       O      0.325210000000     0.270560000000     0.055270000000    -0.500413   
O3       O      0.275450000000     0.314850000000     0.461870000000    -0.496345   
O4       O      0.319240000000     0.385000000000     0.475790000000    -0.498441   
O5       O      0.392930000000     0.319340000000     0.037850000000    -0.496549   
O6       O      0.325540000000     0.385550000000     0.039470000000    -0.497484   
O7       O      0.322990000000     0.268420000000     0.463950000000    -0.500449   
O8       O      0.390110000000     0.320060000000     0.473980000000    -0.500037   
O9       O      0.315530000000     0.718210000000     0.465590000000    -0.498835   
O10      O      0.270830000000     0.669040000000     0.464250000000    -0.502409   
O11      O      0.270770000000     0.667590000000     0.055550000000    -0.514307   
O12      O      0.322760000000     0.599340000000     0.039870000000    -0.50172    
O13      O      0.384870000000     0.672850000000     0.476410000000    -0.512071   
O14      O      0.318170000000     0.602760000000     0.476480000000    -0.510571   
O15      O      0.317710000000     0.713920000000     0.058890000000    -0.503072   
O16      O      0.388700000000     0.667320000000     0.039730000000    -0.500143   
O17      O      0.722970000000     0.320140000000     0.052490000000    -0.497862   
O18      O      0.674660000000     0.274520000000     0.052080000000    -0.500874   
O19      O      0.676050000000     0.273030000000     0.460310000000    -0.503122   
O20      O      0.607010000000     0.322090000000     0.534710000000    -0.499842   
O21      O      0.674300000000     0.389770000000     0.035970000000    -0.498395   
O22      O      0.608740000000     0.322990000000     0.971170000000    -0.505473   
O23      O      0.724160000000     0.318870000000     0.459700000000    -0.497403   
O24      O      0.677590000000     0.388970000000     0.472170000000    -0.500886   
O25      O      0.719410000000     0.672280000000     0.052410000000    -0.500952   
O26      O      0.672310000000     0.719080000000     0.053610000000    -0.500259   
O27      O      0.718380000000     0.675580000000     0.460060000000    -0.499843   
O28      O      0.671980000000     0.606820000000     0.472000000000    -0.508673   
O29      O      0.603170000000     0.668440000000     0.038190000000    -0.497466   
O30      O      0.671730000000     0.603390000000     0.035520000000    -0.499216   
O31      O      0.671030000000     0.722170000000     0.461440000000    -0.497831   
O32      O      0.603100000000     0.674870000000     0.474540000000    -0.500925   
O33      O      0.774980000000     0.172170000000     0.211760000000    -0.510658   
O34      O      0.819540000000     0.221010000000     0.211510000000    -0.498309   
O35      O      0.776340000000     0.170840000000     0.303480000000    -0.513592   
O36      O      0.823800000000     0.106070000000     0.223700000000    -0.500108   
O37      O      0.890610000000     0.176940000000     0.224910000000    -0.500259   
O38      O      0.825820000000     0.103690000000     0.287580000000    -0.499509   
O39      O      0.821290000000     0.219240000000     0.304270000000    -0.502269   
O40      O      0.892380000000     0.170230000000     0.288520000000    -0.500134   
O41      O      0.820430000000     0.772360000000     0.211870000000    -0.512535   
O42      O      0.772090000000     0.817410000000     0.209350000000    -0.505664   
O43      O      0.816100000000     0.775480000000     0.304330000000    -0.503283   
O44      O      0.886270000000     0.819320000000     0.289750000000    -0.499427   
O45      O      0.818820000000     0.888060000000     0.222270000000    -0.51061    
O46      O      0.887710000000     0.822900000000     0.225920000000    -0.503023   
O47      O      0.770430000000     0.823220000000     0.301290000000    -0.510896   
O48      O      0.821480000000     0.890200000000     0.285760000000    -0.505622   
O49      O      0.170700000000     0.768790000000     0.303080000000    -0.513812   
O50      O      0.217160000000     0.815680000000     0.306780000000    -0.499475   
O51      O      0.169560000000     0.770940000000     0.211330000000    -0.502166   
O52      O      0.104610000000     0.818940000000     0.291580000000    -0.511676   
O53      O      0.172920000000     0.885930000000     0.288480000000    -0.500635   
O54      O      0.101940000000     0.819340000000     0.228030000000    -0.50042    
O55      O      0.220380000000     0.813670000000     0.214090000000    -0.501199   
O56      O      0.171280000000     0.884800000000     0.224600000000    -0.502352   
O57      O      0.180320000000     0.217440000000     0.212570000000    -0.502412   
O58      O      0.224690000000     0.168470000000     0.213670000000    -0.513532   
O59      O      0.222470000000     0.166450000000     0.305420000000    -0.51294    
O60      O      0.106650000000     0.168290000000     0.287870000000    -0.502822   
O61      O      0.172910000000     0.102870000000     0.223800000000    -0.512491   
O62      O      0.108900000000     0.174210000000     0.224560000000    -0.511419   
O63      O      0.177880000000     0.215180000000     0.305430000000    -0.503129   
O64      O      0.173600000000     0.099570000000     0.287320000000    -0.502781   
O65      O      0.276760000000     0.316040000000     0.554970000000    -0.499894   
O66      O      0.325210000000     0.270560000000     0.555270000000    -0.500679   
O67      O      0.275450000000     0.314850000000     0.961870000000    -0.494556   
O68      O      0.319240000000     0.385000000000     0.975790000000    -0.494892   
O69      O      0.392930000000     0.319340000000     0.537850000000    -0.497838   
O70      O      0.325540000000     0.385550000000     0.539470000000    -0.498704   
O71      O      0.322990000000     0.268420000000     0.963950000000    -0.498597   
O72      O      0.390110000000     0.320060000000     0.973980000000    -0.496568   
O73      O      0.315530000000     0.718210000000     0.965590000000    -0.497018   
O74      O      0.270830000000     0.669040000000     0.964250000000    -0.500597   
O75      O      0.270770000000     0.667590000000     0.555550000000    -0.514551   
O76      O      0.322760000000     0.599340000000     0.539870000000    -0.502976   
O77      O      0.384870000000     0.672850000000     0.976410000000    -0.508507   
O78      O      0.318170000000     0.602760000000     0.976480000000    -0.507031   
O79      O      0.317710000000     0.713920000000     0.558890000000    -0.503384   
O80      O      0.388700000000     0.667320000000     0.539730000000    -0.501406   
O81      O      0.722970000000     0.320140000000     0.552480000000    -0.498228   
O82      O      0.674670000000     0.274520000000     0.552080000000    -0.501266   
O83      O      0.676050000000     0.273030000000     0.960310000000    -0.501256   
O84      O      0.607010000000     0.322090000000     0.034710000000    -0.498601   
O85      O      0.674300000000     0.389770000000     0.535970000000    -0.499626   
O86      O      0.608740000000     0.322990000000     0.471170000000    -0.508985   
O87      O      0.724160000000     0.318870000000     0.959700000000    -0.495558   
O88      O      0.677590000000     0.388970000000     0.972170000000    -0.497339   
O89      O      0.719400000000     0.672280000000     0.552410000000    -0.501374   
O90      O      0.672310000000     0.719080000000     0.553610000000    -0.500634   
O91      O      0.718380000000     0.675580000000     0.960060000000    -0.498063   
O92      O      0.671970000000     0.606810000000     0.972000000000    -0.505181   
O93      O      0.603170000000     0.668440000000     0.538190000000    -0.498703   
O94      O      0.671730000000     0.603390000000     0.535520000000    -0.500351   
O95      O      0.671030000000     0.722170000000     0.961440000000    -0.495936   
O96      O      0.603100000000     0.674870000000     0.974540000000    -0.49735    
O97      O      0.774980000000     0.172170000000     0.711760000000    -0.510642   
O98      O      0.819540000000     0.221010000000     0.711510000000    -0.498258   
O99      O      0.776350000000     0.170840000000     0.803480000000    -0.513709   
O100     O      0.823800000000     0.106070000000     0.723700000000    -0.49996    
O101     O      0.890610000000     0.176940000000     0.724910000000    -0.500177   
O102     O      0.825820000000     0.103690000000     0.787580000000    -0.499474   
O103     O      0.821290000000     0.219240000000     0.804270000000    -0.502223   
O104     O      0.892380000000     0.170230000000     0.788520000000    -0.500022   
O105     O      0.820430000000     0.772360000000     0.711870000000    -0.512473   
O106     O      0.772090000000     0.817410000000     0.709350000000    -0.505639   
O107     O      0.816100000000     0.775480000000     0.804330000000    -0.503214   
O108     O      0.886280000000     0.819320000000     0.789750000000    -0.499235   
O109     O      0.818810000000     0.888050000000     0.722270000000    -0.510488   
O110     O      0.887720000000     0.822900000000     0.725910000000    -0.502716   
O111     O      0.770430000000     0.823220000000     0.801290000000    -0.510837   
O112     O      0.821480000000     0.890200000000     0.785760000000    -0.50542    
O113     O      0.170700000000     0.768790000000     0.803080000000    -0.513787   
O114     O      0.217160000000     0.815680000000     0.806780000000    -0.499401   
O115     O      0.169560000000     0.770950000000     0.711330000000    -0.50222    
O116     O      0.104610000000     0.818930000000     0.791580000000    -0.511621   
O117     O      0.172920000000     0.885930000000     0.788480000000    -0.500577   
O118     O      0.101940000000     0.819340000000     0.728030000000    -0.500333   
O119     O      0.220380000000     0.813670000000     0.714100000000    -0.501195   
O120     O      0.171280000000     0.884810000000     0.724600000000    -0.502225   
O121     O      0.180320000000     0.217440000000     0.712570000000    -0.502333   
O122     O      0.224690000000     0.168470000000     0.713670000000    -0.513483   
O123     O      0.222470000000     0.166450000000     0.805420000000    -0.512925   
O124     O      0.106650000000     0.168290000000     0.787860000000    -0.502931   
O125     O      0.172910000000     0.102870000000     0.723810000000    -0.512666   
O126     O      0.108900000000     0.174210000000     0.724560000000    -0.511442   
O127     O      0.177880000000     0.215180000000     0.805430000000    -0.503068   
O128     O      0.173600000000     0.099570000000     0.787320000000    -0.502756   


