data_structure

_audit_creation_method RASPA-1.0
_audit_creation_date 2023-6-5
_audit_author_name 'Poobodin Mano'

_cell_length_a    31.9451
_cell_length_b    31.972
_cell_length_c    33.2531
_cell_angle_alpha 89.5547
_cell_angle_beta  90.4453
_cell_angle_gamma 89.999
_cell_volume      33961

_symmetry_cell_setting          triclinic
_symmetry_space_group_name_Hall 'P 1'
_symmetry_space_group_name_H-M  'P 1'
_symmetry_Int_Tables_number     1

_symmetry_equiv_pos_as_xyz 'x,y,z'

loop_
_atom_site_label
_atom_site_type_symbol
_atom_site_fract_x
_atom_site_fract_y
_atom_site_fract_z
_atom_site_charge
C1       C      0.318000000000     0.406830000000     0.003800000000     0.413297   
C2       C      0.286140000000     0.282970000000     0.436910000000     0.408782   
C3       C      0.407760000000     0.316210000000     0.497030000000     0.415233   
C4       C      0.281370000000     0.285020000000     0.060580000000     0.415023   
C5       C      0.319230000000     0.579970000000     0.504860000000     0.408476   
C6       C      0.282420000000     0.701730000000     0.065480000000     0.415242   
C7       C      0.407530000000     0.672310000000     0.003100000000     0.406859   
C8       C      0.282000000000     0.701770000000     0.441990000000     0.414105   
C9       C      0.581020000000     0.317080000000     0.001130000000     0.404825   
C10      C      0.705610000000     0.285260000000     0.443630000000     0.408671   
C11      C      0.670860000000     0.407490000000     0.508530000000     0.415652   
C12      C      0.702280000000     0.281590000000     0.067190000000     0.414039   
C13      C      0.669760000000     0.580740000000     0.007510000000     0.406878   
C14      C      0.705710000000     0.703290000000     0.444210000000     0.4082     
C15      C      0.580830000000     0.672680000000     0.502430000000     0.414071   
C16      C      0.705000000000     0.703300000000     0.067550000000     0.408499   
C17      C      0.816590000000     0.080570000000     0.258870000000     0.408874   
C18      C      0.786390000000     0.206240000000     0.318460000000     0.414639   
C19      C      0.907850000000     0.170630000000     0.257500000000     0.414339   
C20      C      0.783050000000     0.202790000000     0.194850000000     0.408715   
C21      C      0.907960000000     0.819310000000     0.251400000000     0.414891   
C22      C      0.786500000000     0.781960000000     0.317700000000     0.414972   
C23      C      0.815450000000     0.907420000000     0.259540000000     0.415022   
C24      C      0.785950000000     0.782250000000     0.193870000000     0.415375   
C25      C      0.081290000000     0.818810000000     0.250720000000     0.408593   
C26      C      0.203560000000     0.783050000000     0.190430000000     0.408581   
C27      C      0.173050000000     0.907160000000     0.254070000000     0.415029   
C28      C      0.203850000000     0.782370000000     0.313890000000     0.408181   
C29      C      0.081050000000     0.170470000000     0.252230000000     0.408968   
C30      C      0.207670000000     0.202340000000     0.310240000000     0.413928   
C31      C      0.171480000000     0.080300000000     0.251350000000     0.408301   
C32      C      0.202260000000     0.204000000000     0.186720000000     0.409343   
C33      C      0.174140000000     0.015140000000     0.217750000000     0.0319022  
C34      C      0.174880000000     0.016730000000     0.288540000000     0.0185356  
C35      C      0.174760000000     0.971550000000     0.218980000000     0.0312084  
C36      C      0.175650000000     0.972920000000     0.290140000000     0.0671932  
C37      C      0.016750000000     0.815340000000     0.285360000000     0.0316436  
C38      C      0.016860000000     0.819590000000     0.214620000000     0.0182287  
C39      C      0.973130000000     0.815420000000     0.285000000000     0.0311131  
C40      C      0.972960000000     0.819620000000     0.213900000000     0.0673123  
C41      C      0.812500000000     0.015840000000     0.224670000000     0.031775   
C42      C      0.814600000000     0.016520000000     0.295470000000     0.0184126  
C43      C      0.811900000000     0.972250000000     0.225370000000     0.031109   
C44      C      0.814070000000     0.972660000000     0.296530000000     0.0672846  
C45      C      0.014730000000     0.168360000000     0.219670000000     0.0316186  
C46      C      0.018580000000     0.177210000000     0.289840000000     0.0183491  
C47      C      0.971150000000     0.168620000000     0.221510000000     0.0310823  
C48      C      0.974760000000     0.177540000000     0.292050000000     0.0673547  
C49      C      0.710520000000     0.758160000000     0.396010000000     0.0315448  
C50      C      0.762310000000     0.705770000000     0.398420000000     0.0186872  
C51      C      0.731170000000     0.777470000000     0.364100000000     0.031069   
C52      C      0.783450000000     0.725020000000     0.366450000000     0.0669882  
C53      C      0.709550000000     0.758080000000     0.115190000000     0.0316769  
C54      C      0.761820000000     0.706200000000     0.113820000000     0.0182635  
C55      C      0.730340000000     0.777570000000     0.146970000000     0.031023   
C56      C      0.783030000000     0.725540000000     0.145710000000     0.0673566  
C57      C      0.710350000000     0.230410000000     0.396250000000     0.0318137  
C58      C      0.762440000000     0.282490000000     0.398090000000     0.0184754  
C59      C      0.731120000000     0.210860000000     0.364830000000     0.0312428  
C60      C      0.783590000000     0.263110000000     0.366480000000     0.0674362  
C61      C      0.779270000000     0.256570000000     0.145380000000     0.031788   
C62      C      0.725460000000     0.206420000000     0.149420000000     0.018705   
C63      C      0.758500000000     0.276040000000     0.113320000000     0.0312852  
C64      C      0.704340000000     0.225680000000     0.117130000000     0.0671347  
C65      C      0.673040000000     0.515890000000     0.473490000000     0.031873   
C66      C      0.670800000000     0.516730000000     0.044240000000     0.0183318  
C67      C      0.673470000000     0.472300000000     0.474290000000     0.0312077  
C68      C      0.671330000000     0.472870000000     0.045410000000     0.0669963  
C69      C      0.258700000000     0.777490000000     0.362230000000     0.0318457  
C70      C      0.205880000000     0.726130000000     0.360860000000     0.0184483  
C71      C      0.277860000000     0.756910000000     0.394570000000     0.0312851  
C72      C      0.224910000000     0.705130000000     0.393330000000     0.0675369  
C73      C      0.258770000000     0.777880000000     0.143340000000     0.0316813  
C74      C      0.205720000000     0.726750000000     0.144420000000     0.0184603  
C75      C      0.278200000000     0.757010000000     0.111900000000     0.0312105  
C76      C      0.225020000000     0.705470000000     0.112870000000     0.0671983  
C77      C      0.472870000000     0.674390000000     0.537460000000     0.0317023  
C78      C      0.471040000000     0.676180000000     0.466670000000     0.0184818  
C79      C      0.516510000000     0.674610000000     0.536760000000     0.0310715  
C80      C      0.514910000000     0.676470000000     0.465600000000     0.0671603  
C81      C      0.233000000000     0.279680000000     0.386790000000     0.0317803  
C82      C      0.282790000000     0.225570000000     0.392170000000     0.0184473  
C83      C      0.213640000000     0.258970000000     0.354950000000     0.0312269  
C84      C      0.263650000000     0.204520000000     0.360100000000     0.0672861  
C85      C      0.257530000000     0.209190000000     0.139710000000     0.0318039  
C86      C      0.204150000000     0.259980000000     0.139430000000     0.0183528  
C87      C      0.277100000000     0.230030000000     0.108050000000     0.0311153  
C88      C      0.223540000000     0.281200000000     0.107560000000     0.0673578  
C89      C      0.515520000000     0.311520000000     0.533830000000     0.0316063  
C90      C      0.517700000000     0.317530000000     0.463250000000     0.0183429  
C91      C      0.471920000000     0.311110000000     0.532260000000     0.0310447  
C92      C      0.473840000000     0.317180000000     0.461310000000     0.067398   
C93      C      0.315810000000     0.515610000000     0.969980000000     0.032659   
C94      C      0.318110000000     0.515520000000     0.540790000000     0.0183091  
C95      C      0.315230000000     0.472030000000     0.970250000000     0.0322383  
C96      C      0.317510000000     0.471670000000     0.041410000000     0.0672309  
C97      C      0.318000000000     0.406830000000     0.503800000000     0.414878   
C98      C      0.286140000000     0.282970000000     0.936900000000     0.408866   
C99      C      0.407760000000     0.316210000000     0.997030000000     0.417523   
C100     C      0.281370000000     0.285020000000     0.560580000000     0.415051   
C101     C      0.319230000000     0.579970000000     0.004860000000     0.406805   
C102     C      0.282420000000     0.701730000000     0.565480000000     0.415366   
C103     C      0.407530000000     0.672310000000     0.503100000000     0.408739   
C104     C      0.282000000000     0.701770000000     0.941990000000     0.414181   
C105     C      0.581020000000     0.317080000000     0.501130000000     0.408042   
C106     C      0.705610000000     0.285260000000     0.943630000000     0.4085     
C107     C      0.670870000000     0.407490000000     0.008530000000     0.413713   
C108     C      0.702280000000     0.281590000000     0.567190000000     0.414155   
C109     C      0.669760000000     0.580730000000     0.507510000000     0.408774   
C110     C      0.705710000000     0.703290000000     0.944210000000     0.408025   
C111     C      0.580830000000     0.672680000000     0.002430000000     0.412097   
C112     C      0.705010000000     0.703300000000     0.567550000000     0.408544   
C113     C      0.816590000000     0.080570000000     0.758860000000     0.408884   
C114     C      0.786390000000     0.206240000000     0.818460000000     0.414667   
C115     C      0.907850000000     0.170630000000     0.757500000000     0.414343   
C116     C      0.783040000000     0.202790000000     0.694850000000     0.408721   
C117     C      0.907960000000     0.819310000000     0.751400000000     0.414895   
C118     C      0.786500000000     0.781960000000     0.817700000000     0.414957   
C119     C      0.815450000000     0.907420000000     0.759540000000     0.415042   
C120     C      0.785950000000     0.782250000000     0.693870000000     0.415536   
C121     C      0.081290000000     0.818810000000     0.750720000000     0.4086     
C122     C      0.203560000000     0.783050000000     0.690430000000     0.408596   
C123     C      0.173050000000     0.907160000000     0.754070000000     0.415034   
C124     C      0.203850000000     0.782370000000     0.813890000000     0.408144   
C125     C      0.081050000000     0.170470000000     0.752230000000     0.408707   
C126     C      0.207670000000     0.202340000000     0.810240000000     0.413992   
C127     C      0.171480000000     0.080300000000     0.751350000000     0.408301   
C128     C      0.202260000000     0.204000000000     0.686720000000     0.409366   
C129     C      0.174140000000     0.015140000000     0.717750000000     0.031965   
C130     C      0.174880000000     0.016730000000     0.788540000000     0.0185776  
C131     C      0.174760000000     0.971550000000     0.718980000000     0.0312331  
C132     C      0.175650000000     0.972920000000     0.790140000000     0.0671923  
C133     C      0.016750000000     0.815340000000     0.785360000000     0.0316609  
C134     C      0.016860000000     0.819590000000     0.714630000000     0.0183476  
C135     C      0.973130000000     0.815420000000     0.785000000000     0.0311526  
C136     C      0.972960000000     0.819620000000     0.713900000000     0.0672808  
C137     C      0.812500000000     0.015840000000     0.724670000000     0.0318164  
C138     C      0.814600000000     0.016520000000     0.795470000000     0.0184699  
C139     C      0.811890000000     0.972260000000     0.725370000000     0.0311005  
C140     C      0.814070000000     0.972660000000     0.796530000000     0.0672785  
C141     C      0.014730000000     0.168360000000     0.719670000000     0.0316449  
C142     C      0.018580000000     0.177210000000     0.789840000000     0.0183789  
C143     C      0.971150000000     0.168620000000     0.721510000000     0.0311239  
C144     C      0.974760000000     0.177540000000     0.792050000000     0.0673584  
C145     C      0.710520000000     0.758160000000     0.896010000000     0.0316205  
C146     C      0.762310000000     0.705770000000     0.898410000000     0.0187036  
C147     C      0.731170000000     0.777470000000     0.864100000000     0.0311196  
C148     C      0.783440000000     0.725020000000     0.866450000000     0.0670916  
C149     C      0.709550000000     0.758090000000     0.615190000000     0.0316945  
C150     C      0.761820000000     0.706200000000     0.613830000000     0.0183115  
C151     C      0.730340000000     0.777570000000     0.646970000000     0.0311058  
C152     C      0.783030000000     0.725540000000     0.645710000000     0.0674003  
C153     C      0.710350000000     0.230410000000     0.896250000000     0.0318887  
C154     C      0.762430000000     0.282490000000     0.898090000000     0.0185985  
C155     C      0.731120000000     0.210860000000     0.864830000000     0.0313105  
C156     C      0.783590000000     0.263110000000     0.866480000000     0.0674526  
C157     C      0.779270000000     0.256570000000     0.645380000000     0.0319021  
C158     C      0.725450000000     0.206420000000     0.649420000000     0.0186911  
C159     C      0.758510000000     0.276040000000     0.613320000000     0.0312814  
C160     C      0.704340000000     0.225680000000     0.617130000000     0.0671819  
C161     C      0.673040000000     0.515890000000     0.973490000000     0.0329169  
C162     C      0.670800000000     0.516730000000     0.544240000000     0.0185953  
C163     C      0.673470000000     0.472300000000     0.974290000000     0.0322808  
C164     C      0.671340000000     0.472870000000     0.545410000000     0.0671814  
C165     C      0.258700000000     0.777490000000     0.862230000000     0.0319218  
C166     C      0.205880000000     0.726130000000     0.860860000000     0.0185287  
C167     C      0.277860000000     0.756910000000     0.894570000000     0.0313586  
C168     C      0.224910000000     0.705130000000     0.893330000000     0.0675516  
C169     C      0.258770000000     0.777880000000     0.643340000000     0.031729   
C170     C      0.205720000000     0.726750000000     0.644420000000     0.0185038  
C171     C      0.278200000000     0.757010000000     0.611900000000     0.0312906  
C172     C      0.225020000000     0.705470000000     0.612870000000     0.0672418  
C173     C      0.472870000000     0.674390000000     0.037470000000     0.0314059  
C174     C      0.471040000000     0.676180000000     0.966670000000     0.019589   
C175     C      0.516510000000     0.674610000000     0.036760000000     0.0308523  
C176     C      0.514910000000     0.676470000000     0.965600000000     0.0680463  
C177     C      0.233000000000     0.279680000000     0.886790000000     0.0318716  
C178     C      0.282790000000     0.225570000000     0.892170000000     0.0185393  
C179     C      0.213640000000     0.258970000000     0.854950000000     0.0312748  
C180     C      0.263650000000     0.204520000000     0.860100000000     0.0673179  
C181     C      0.257530000000     0.209190000000     0.639710000000     0.0318689  
C182     C      0.204150000000     0.259980000000     0.639430000000     0.0184228  
C183     C      0.277100000000     0.230030000000     0.608050000000     0.0311852  
C184     C      0.223540000000     0.281200000000     0.607560000000     0.067374   
C185     C      0.515520000000     0.311520000000     0.033830000000     0.0303672  
C186     C      0.517700000000     0.317530000000     0.963250000000     0.0184143  
C187     C      0.471920000000     0.311110000000     0.032260000000     0.03014    
C188     C      0.473840000000     0.317180000000     0.961310000000     0.067726   
C189     C      0.315810000000     0.515620000000     0.469980000000     0.0316439  
C190     C      0.318110000000     0.515520000000     0.040790000000     0.0180266  
C191     C      0.315230000000     0.472030000000     0.470250000000     0.0311558  
C192     C      0.317510000000     0.471670000000     0.541420000000     0.0673755  
H1       H      0.174550000000     0.955370000000     0.190430000000     0.0451303  
H2       H      0.173540000000     0.030510000000     0.188560000000     0.0442653  
H3       H      0.175140000000     0.033850000000     0.316610000000     0.0482032  
H4       H      0.138390000000     0.943190000000     0.352360000000     0.0422013  
H5       H      0.957570000000     0.813800000000     0.313850000000     0.0455796  
H6       H      0.032720000000     0.813630000000     0.314230000000     0.0441751  
H7       H      0.033400000000     0.821090000000     0.186250000000     0.0481947  
H8       H      0.942550000000     0.780950000000     0.152790000000     0.0404312  
H9       H      0.810960000000     0.956470000000     0.196620000000     0.0451262  
H10      H      0.811870000000     0.031570000000     0.195650000000     0.0442956  
H11      H      0.815410000000     0.033280000000     0.323730000000     0.0486716  
H12      H      0.772560000000     0.943500000000     0.356430000000     0.0416994  
H13      H      0.954060000000     0.164960000000     0.193450000000     0.0449871  
H14      H      0.029170000000     0.164640000000     0.190510000000     0.0439796  
H15      H      0.036600000000     0.180920000000     0.317400000000     0.0485963  
H16      H      0.947530000000     0.227550000000     0.346100000000     0.0404794  
H17      H      0.717330000000     0.805820000000     0.351770000000     0.0441457  
H18      H      0.681870000000     0.772310000000     0.406710000000     0.0434104  
H19      H      0.775320000000     0.677290000000     0.411380000000     0.0487961  
H20      H      0.819690000000     0.671860000000     0.320730000000     0.0410885  
H21      H      0.716330000000     0.805740000000     0.158880000000     0.0450558  
H22      H      0.680690000000     0.771990000000     0.104080000000     0.0440649  
H23      H      0.775090000000     0.677970000000     0.101230000000     0.0486225  
H24      H      0.862960000000     0.718050000000     0.140810000000     0.0410009  
H25      H      0.717140000000     0.182610000000     0.352870000000     0.0450604  
H26      H      0.681580000000     0.216410000000     0.407040000000     0.044233   
H27      H      0.775650000000     0.310790000000     0.410810000000     0.0486628  
H28      H      0.863550000000     0.270350000000     0.372550000000     0.0410999  
H29      H      0.773160000000     0.303520000000     0.100260000000     0.0450557  
H30      H      0.808730000000     0.269810000000     0.155540000000     0.0442985  
H31      H      0.711580000000     0.178880000000     0.163200000000     0.048638   
H32      H      0.624340000000     0.220500000000     0.123370000000     0.0431861  
H33      H      0.674440000000     0.456470000000     0.445580000000     0.045276   
H34      H      0.673750000000     0.531550000000     0.444450000000     0.0444318  
H35      H      0.669850000000     0.533550000000     0.072450000000     0.0485373  
H36      H      0.630620000000     0.442630000000     0.105330000000     0.0416017  
H37      H      0.306340000000     0.770590000000     0.406620000000     0.0452514  
H38      H      0.273080000000     0.805930000000     0.350940000000     0.0444965  
H39      H      0.177300000000     0.713260000000     0.348150000000     0.0488685  
H40      H      0.214840000000     0.625430000000     0.390400000000     0.0440141  
H41      H      0.306850000000     0.770510000000     0.100260000000     0.0450592  
H42      H      0.273160000000     0.806300000000     0.154450000000     0.0443212  
H43      H      0.176970000000     0.714040000000     0.156700000000     0.0483912  
H44      H      0.171890000000     0.669560000000     0.066050000000     0.0409367  
H45      H      0.532790000000     0.673840000000     0.565500000000     0.045134   
H46      H      0.457600000000     0.673500000000     0.566470000000     0.0441452  
H47      H      0.453820000000     0.677000000000     0.438400000000     0.0486321  
H48      H      0.543450000000     0.720670000000     0.407010000000     0.0423321  
H49      H      0.186340000000     0.273750000000     0.341430000000     0.0450995  
H50      H      0.219870000000     0.309240000000     0.396320000000     0.0444199  
H51      H      0.310170000000     0.211580000000     0.406380000000     0.0479092  
H52      H      0.268670000000     0.124570000000     0.367490000000     0.0436596  
H53      H      0.305900000000     0.216610000000     0.096880000000     0.0452901  
H54      H      0.272060000000     0.180930000000     0.151480000000     0.0443835  
H55      H      0.175310000000     0.272650000000     0.151380000000     0.0483045  
H56      H      0.214020000000     0.360920000000     0.111320000000     0.0406947  
H57      H      0.455520000000     0.308620000000     0.560620000000     0.0451401  
H58      H      0.530650000000     0.309240000000     0.563090000000     0.0435238  
H59      H      0.535070000000     0.319890000000     0.435400000000     0.0485877  
H60      H      0.445840000000     0.279520000000     0.398610000000     0.0420131  
H61      H      0.314220000000     0.456560000000     0.941340000000     0.0451937  
H62      H      0.315080000000     0.531660000000     0.941120000000     0.0437745  
H63      H      0.318970000000     0.531960000000     0.569220000000     0.0487637  
H64      H      0.276080000000     0.441820000000     0.601080000000     0.0400988  
H65      H      0.174550000000     0.955370000000     0.690430000000     0.0452201  
H66      H      0.173540000000     0.030510000000     0.688550000000     0.0443484  
H67      H      0.175140000000     0.033850000000     0.816610000000     0.048278   
H68      H      0.138390000000     0.943190000000     0.852360000000     0.0423036  
H69      H      0.957580000000     0.813800000000     0.813850000000     0.0456629  
H70      H      0.032720000000     0.813630000000     0.814220000000     0.044277   
H71      H      0.033400000000     0.821090000000     0.686250000000     0.0482411  
H72      H      0.942550000000     0.780950000000     0.652790000000     0.0405145  
H73      H      0.810960000000     0.956470000000     0.696630000000     0.0452293  
H74      H      0.811880000000     0.031570000000     0.695650000000     0.0443789  
H75      H      0.815410000000     0.033280000000     0.823730000000     0.0487548  
H76      H      0.772560000000     0.943510000000     0.856430000000     0.041807   
H77      H      0.954060000000     0.164960000000     0.693450000000     0.0450726  
H78      H      0.029170000000     0.164640000000     0.690510000000     0.0440742  
H79      H      0.036600000000     0.180920000000     0.817400000000     0.0486837  
H80      H      0.947540000000     0.227550000000     0.846100000000     0.0405562  
H81      H      0.717320000000     0.805820000000     0.851770000000     0.0442171  
H82      H      0.681870000000     0.772310000000     0.906710000000     0.043555   
H83      H      0.775320000000     0.677290000000     0.911370000000     0.0489595  
H84      H      0.819690000000     0.671860000000     0.820730000000     0.0411127  
H85      H      0.716340000000     0.805750000000     0.658880000000     0.0451218  
H86      H      0.680690000000     0.771990000000     0.604080000000     0.0442038  
H87      H      0.775090000000     0.677970000000     0.601220000000     0.0487441  
H88      H      0.862960000000     0.718050000000     0.640810000000     0.0411093  
H89      H      0.717140000000     0.182610000000     0.852870000000     0.0451393  
H90      H      0.681580000000     0.216410000000     0.907040000000     0.0443851  
H91      H      0.775650000000     0.310780000000     0.910800000000     0.0487836  
H92      H      0.863550000000     0.270350000000     0.872550000000     0.0412227  
H93      H      0.773160000000     0.303520000000     0.600260000000     0.0452069  
H94      H      0.808740000000     0.269810000000     0.655540000000     0.0443573  
H95      H      0.711580000000     0.178880000000     0.663200000000     0.0487041  
H96      H      0.624340000000     0.220500000000     0.623370000000     0.0432071  
H97      H      0.674440000000     0.456470000000     0.945580000000     0.0452266  
H98      H      0.673750000000     0.531550000000     0.944450000000     0.0443985  
H99      H      0.669850000000     0.533550000000     0.572450000000     0.0485269  
H100     H      0.630620000000     0.442630000000     0.605340000000     0.0416374  
H101     H      0.306340000000     0.770590000000     0.906620000000     0.045398   
H102     H      0.273080000000     0.805930000000     0.850940000000     0.0445739  
H103     H      0.177300000000     0.713260000000     0.848150000000     0.0489187  
H104     H      0.214840000000     0.625430000000     0.890400000000     0.0440503  
H105     H      0.306850000000     0.770510000000     0.600260000000     0.0451811  
H106     H      0.273160000000     0.806300000000     0.654450000000     0.0443949  
H107     H      0.176970000000     0.714040000000     0.656700000000     0.0484368  
H108     H      0.171890000000     0.669560000000     0.566050000000     0.0411659  
H109     H      0.532790000000     0.673840000000     0.065500000000     0.0451127  
H110     H      0.457600000000     0.673500000000     0.066480000000     0.0441435  
H111     H      0.453820000000     0.677000000000     0.938400000000     0.0485624  
H112     H      0.543450000000     0.720670000000     0.907020000000     0.0424748  
H113     H      0.186340000000     0.273750000000     0.841430000000     0.0451699  
H114     H      0.219870000000     0.309240000000     0.896320000000     0.0445442  
H115     H      0.310170000000     0.211580000000     0.906380000000     0.048031   
H116     H      0.268670000000     0.124570000000     0.867500000000     0.0437888  
H117     H      0.305900000000     0.216610000000     0.596880000000     0.0454244  
H118     H      0.272060000000     0.180930000000     0.651480000000     0.0444576  
H119     H      0.175310000000     0.272650000000     0.651380000000     0.0483546  
H120     H      0.214020000000     0.360920000000     0.611320000000     0.0407135  
H121     H      0.455520000000     0.308620000000     0.060620000000     0.0451717  
H122     H      0.530650000000     0.309240000000     0.063090000000     0.0437155  
H123     H      0.535070000000     0.319890000000     0.935400000000     0.0487341  
H124     H      0.445830000000     0.279520000000     0.898610000000     0.0420916  
H125     H      0.314220000000     0.456560000000     0.441340000000     0.0452522  
H126     H      0.315080000000     0.531660000000     0.441120000000     0.0438162  
H127     H      0.318970000000     0.531960000000     0.069220000000     0.0487699  
H128     H      0.276080000000     0.441820000000     0.101080000000     0.0400275  
In1      In     0.323150000000     0.322370000000     0.499390000000     2.42912    
In2      In     0.323210000000     0.664440000000     0.504130000000     2.42311    
In3      In     0.665380000000     0.322870000000     0.504820000000     2.42219    
In4      In     0.665400000000     0.665260000000     0.505650000000     2.41857    
In5      In     0.823120000000     0.164950000000     0.257140000000     2.42165    
In6      In     0.823320000000     0.823040000000     0.255700000000     2.42878    
In7      In     0.165860000000     0.822700000000     0.251900000000     2.42142    
In8      In     0.165480000000     0.164630000000     0.249480000000     2.42049    
In9      In     0.323150000000     0.322370000000     0.999390000000     2.43363    
In10     In     0.323210000000     0.664440000000     0.004130000000     2.41847    
In11     In     0.665380000000     0.322870000000     0.004820000000     2.41769    
In12     In     0.665400000000     0.665260000000     0.005650000000     2.41388    
In13     In     0.823120000000     0.164950000000     0.757140000000     2.42172    
In14     In     0.823320000000     0.823050000000     0.755700000000     2.42896    
In15     In     0.165860000000     0.822700000000     0.751910000000     2.42147    
In16     In     0.165480000000     0.164630000000     0.749480000000     2.42032    
N1       N      0.173620000000     0.037570000000     0.252500000000    -0.174348   
N2       N      0.174800000000     0.950150000000     0.254930000000    -0.181393   
N3       N      0.038480000000     0.817800000000     0.250230000000    -0.174554   
N4       N      0.950950000000     0.818040000000     0.249550000000    -0.18146    
N5       N      0.814420000000     0.037830000000     0.259670000000    -0.174511   
N6       N      0.813510000000     0.950380000000     0.261030000000    -0.181597   
N7       N      0.038300000000     0.172170000000     0.253870000000    -0.174624   
N8       N      0.950890000000     0.172500000000     0.257540000000    -0.181376   
N9       N      0.726110000000     0.722370000000     0.413030000000    -0.174371   
N10      N      0.767630000000     0.761280000000     0.349150000000    -0.18145    
N11      N      0.725320000000     0.722470000000     0.098750000000    -0.174438   
N12      N      0.767000000000     0.761590000000     0.162470000000    -0.181673   
N13      N      0.726030000000     0.266150000000     0.412750000000    -0.174354   
N14      N      0.767610000000     0.226960000000     0.349640000000    -0.18133    
N15      N      0.762690000000     0.221860000000     0.163330000000    -0.174409   
N16      N      0.721130000000     0.260890000000     0.098930000000    -0.181226   
N17      N      0.671290000000     0.537960000000     0.008410000000    -0.174829   
N18      N      0.672110000000     0.450490000000     0.509980000000    -0.181593   
N19      N      0.222790000000     0.762060000000     0.345490000000    -0.174227   
N20      N      0.261350000000     0.720720000000     0.410270000000    -0.181247   
N21      N      0.222620000000     0.762690000000     0.159500000000    -0.174472   
N22      N      0.261680000000     0.720830000000     0.096490000000    -0.181426   
N23      N      0.450300000000     0.674530000000     0.002440000000    -0.175046   
N24      N      0.537810000000     0.674860000000     0.501070000000    -0.181285   
N25      N      0.267390000000     0.262860000000     0.405390000000    -0.174532   
N26      N      0.228580000000     0.221390000000     0.341450000000    -0.181131   
N27      N      0.221190000000     0.224240000000     0.155350000000    -0.174675   
N28      N      0.260420000000     0.265970000000     0.091750000000    -0.181523   
N29      N      0.538260000000     0.315230000000     0.999400000000    -0.172619   
N30      N      0.450790000000     0.314630000000     0.496300000000    -0.181535   
N31      N      0.317670000000     0.537210000000     0.505200000000    -0.174418   
N32      N      0.316720000000     0.449780000000     0.005690000000    -0.182056   
N33      N      0.173620000000     0.037570000000     0.752500000000    -0.174337   
N34      N      0.174800000000     0.950150000000     0.754930000000    -0.181373   
N35      N      0.038480000000     0.817800000000     0.750230000000    -0.174558   
N36      N      0.950950000000     0.818040000000     0.749550000000    -0.181439   
N37      N      0.814420000000     0.037830000000     0.759670000000    -0.174497   
N38      N      0.813510000000     0.950380000000     0.761030000000    -0.181565   
N39      N      0.038300000000     0.172170000000     0.753870000000    -0.174555   
N40      N      0.950890000000     0.172500000000     0.757540000000    -0.18136    
N41      N      0.726110000000     0.722370000000     0.913030000000    -0.174261   
N42      N      0.767630000000     0.761270000000     0.849150000000    -0.181424   
N43      N      0.725320000000     0.722470000000     0.598750000000    -0.174406   
N44      N      0.767000000000     0.761590000000     0.662470000000    -0.181697   
N45      N      0.726030000000     0.266150000000     0.912750000000    -0.174272   
N46      N      0.767610000000     0.226960000000     0.849640000000    -0.181311   
N47      N      0.762690000000     0.221860000000     0.663330000000    -0.174412   
N48      N      0.721130000000     0.260890000000     0.598930000000    -0.181177   
N49      N      0.671290000000     0.537960000000     0.508410000000    -0.174437   
N50      N      0.672110000000     0.450490000000     0.009980000000    -0.182048   
N51      N      0.222790000000     0.762060000000     0.845500000000    -0.174172   
N52      N      0.261350000000     0.720720000000     0.910270000000    -0.181188   
N53      N      0.222620000000     0.762690000000     0.659500000000    -0.174457   
N54      N      0.261680000000     0.720830000000     0.596490000000    -0.181402   
N55      N      0.450300000000     0.674530000000     0.502440000000    -0.174595   
N56      N      0.537810000000     0.674860000000     0.001070000000    -0.181719   
N57      N      0.267390000000     0.262860000000     0.905390000000    -0.174549   
N58      N      0.228580000000     0.221390000000     0.841450000000    -0.181117   
N59      N      0.221190000000     0.224240000000     0.655350000000    -0.174662   
N60      N      0.260420000000     0.265970000000     0.591750000000    -0.181466   
N61      N      0.538260000000     0.315230000000     0.499400000000    -0.174429   
N62      N      0.450790000000     0.314630000000     0.996300000000    -0.181158   
N63      N      0.317670000000     0.537210000000     0.005200000000    -0.174907   
N64      N      0.316720000000     0.449780000000     0.505690000000    -0.18151    
O1       O      0.268270000000     0.317280000000     0.042460000000    -0.504922   
O2       O      0.315810000000     0.271500000000     0.047440000000    -0.499058   
O3       O      0.273300000000     0.317630000000     0.450000000000    -0.496263   
O4       O      0.322700000000     0.383440000000     0.534170000000    -0.503294   
O5       O      0.385300000000     0.322340000000     0.966230000000    -0.504169   
O6       O      0.315740000000     0.387250000000     0.970970000000    -0.49604    
O7       O      0.317640000000     0.268310000000     0.455360000000    -0.503526   
O8       O      0.387150000000     0.312890000000     0.529190000000    -0.497819   
O9       O      0.270460000000     0.667790000000     0.457840000000    -0.499996   
O10      O      0.314730000000     0.716950000000     0.457750000000    -0.498952   
O11      O      0.270390000000     0.668180000000     0.049490000000    -0.501746   
O12      O      0.321260000000     0.601310000000     0.036610000000    -0.496661   
O13      O      0.385430000000     0.671180000000     0.471480000000    -0.499755   
O14      O      0.319150000000     0.601310000000     0.472740000000    -0.496894   
O15      O      0.315550000000     0.716460000000     0.050390000000    -0.499346   
O16      O      0.386970000000     0.670060000000     0.035340000000    -0.497446   
O17      O      0.668440000000     0.270000000000     0.051040000000    -0.498568   
O18      O      0.717590000000     0.314270000000     0.051500000000    -0.499487   
O19      O      0.671920000000     0.271320000000     0.458140000000    -0.498915   
O20      O      0.603420000000     0.320900000000     0.470180000000    -0.497899   
O21      O      0.668200000000     0.384300000000     0.039220000000    -0.500763   
O22      O      0.601280000000     0.315870000000     0.033880000000    -0.49592    
O23      O      0.718940000000     0.318270000000     0.459970000000    -0.498056   
O24      O      0.671220000000     0.387610000000     0.475840000000    -0.499841   
O25      O      0.718410000000     0.670240000000     0.051620000000    -0.499983   
O26      O      0.671400000000     0.717220000000     0.052280000000    -0.496222   
O27      O      0.718500000000     0.669710000000     0.460350000000    -0.497212   
O28      O      0.670070000000     0.601670000000     0.475150000000    -0.495988   
O29      O      0.603390000000     0.670210000000     0.971610000000    -0.497614   
O30      O      0.667420000000     0.602510000000     0.038940000000    -0.497133   
O31      O      0.672520000000     0.717730000000     0.459150000000    -0.49775    
O32      O      0.601320000000     0.671650000000     0.535100000000    -0.498072   
O33      O      0.768740000000     0.170840000000     0.212590000000    -0.499888   
O34      O      0.817670000000     0.215650000000     0.208560000000    -0.497373   
O35      O      0.772180000000     0.172410000000     0.304410000000    -0.498639   
O36      O      0.818680000000     0.102300000000     0.290380000000    -0.49753    
O37      O      0.886200000000     0.170780000000     0.289020000000    -0.499626   
O38      O      0.817490000000     0.101490000000     0.226520000000    -0.498598   
O39      O      0.818990000000     0.219010000000     0.301170000000    -0.500031   
O40      O      0.886390000000     0.167540000000     0.225560000000    -0.498063   
O41      O      0.819280000000     0.770020000000     0.210660000000    -0.504949   
O42      O      0.771270000000     0.815480000000     0.208580000000    -0.49815    
O43      O      0.820870000000     0.770950000000     0.302730000000    -0.499145   
O44      O      0.888320000000     0.816800000000     0.284190000000    -0.496433   
O45      O      0.813760000000     0.887490000000     0.226890000000    -0.499531   
O46      O      0.884530000000     0.823760000000     0.221010000000    -0.501718   
O47      O      0.770780000000     0.814140000000     0.301220000000    -0.502891   
O48      O      0.820680000000     0.884390000000     0.290100000000    -0.502787   
O49      O      0.170260000000     0.769620000000     0.297900000000    -0.497701   
O50      O      0.218390000000     0.815490000000     0.298450000000    -0.496865   
O51      O      0.170070000000     0.770150000000     0.206180000000    -0.500906   
O52      O      0.102780000000     0.821760000000     0.219100000000    -0.49841    
O53      O      0.170570000000     0.884520000000     0.285150000000    -0.501434   
O54      O      0.102540000000     0.817490000000     0.282880000000    -0.496735   
O55      O      0.218040000000     0.816170000000     0.205650000000    -0.497168   
O56      O      0.172350000000     0.886790000000     0.221650000000    -0.498739   
O57      O      0.168870000000     0.216930000000     0.202460000000    -0.500622   
O58      O      0.216930000000     0.171020000000     0.202510000000    -0.498588   
O59      O      0.218770000000     0.168060000000     0.295200000000    -0.498459   
O60      O      0.104100000000     0.173130000000     0.283120000000    -0.49817    
O61      O      0.170170000000     0.101030000000     0.218860000000    -0.495542   
O62      O      0.100680000000     0.165280000000     0.219820000000    -0.498916   
O63      O      0.175070000000     0.217720000000     0.294180000000    -0.497811   
O64      O      0.169970000000     0.102200000000     0.282740000000    -0.498555   
O65      O      0.268270000000     0.317270000000     0.542460000000    -0.504027   
O66      O      0.315810000000     0.271500000000     0.547440000000    -0.498118   
O67      O      0.273300000000     0.317630000000     0.950000000000    -0.49639    
O68      O      0.322690000000     0.383440000000     0.034170000000    -0.503786   
O69      O      0.385300000000     0.322340000000     0.466220000000    -0.503239   
O70      O      0.315740000000     0.387240000000     0.470970000000    -0.496948   
O71      O      0.317640000000     0.268310000000     0.955360000000    -0.503589   
O72      O      0.387150000000     0.312890000000     0.029190000000    -0.499914   
O73      O      0.270460000000     0.667800000000     0.957830000000    -0.499055   
O74      O      0.314730000000     0.716950000000     0.957750000000    -0.497984   
O75      O      0.270390000000     0.668180000000     0.549490000000    -0.501927   
O76      O      0.321260000000     0.601310000000     0.536610000000    -0.49732    
O77      O      0.385440000000     0.671180000000     0.971480000000    -0.497679   
O78      O      0.319150000000     0.601310000000     0.972750000000    -0.495076   
O79      O      0.315550000000     0.716460000000     0.550390000000    -0.499496   
O80      O      0.386970000000     0.670070000000     0.535340000000    -0.498115   
O81      O      0.668440000000     0.270000000000     0.551040000000    -0.49874    
O82      O      0.717590000000     0.314270000000     0.551500000000    -0.499619   
O83      O      0.671920000000     0.271320000000     0.958140000000    -0.497874   
O84      O      0.603420000000     0.320900000000     0.970180000000    -0.495584   
O85      O      0.668200000000     0.384300000000     0.539220000000    -0.501488   
O86      O      0.601270000000     0.315860000000     0.533880000000    -0.496824   
O87      O      0.718940000000     0.318270000000     0.959970000000    -0.497015   
O88      O      0.671220000000     0.387610000000     0.975840000000    -0.497818   
O89      O      0.718410000000     0.670240000000     0.551610000000    -0.500196   
O90      O      0.671400000000     0.717220000000     0.552280000000    -0.496281   
O91      O      0.718500000000     0.669710000000     0.960350000000    -0.496153   
O92      O      0.670070000000     0.601670000000     0.975150000000    -0.49399    
O93      O      0.603390000000     0.670220000000     0.471610000000    -0.49965    
O94      O      0.667420000000     0.602510000000     0.538940000000    -0.497788   
O95      O      0.672520000000     0.717730000000     0.959150000000    -0.496699   
O96      O      0.601320000000     0.671650000000     0.035100000000    -0.497363   
O97      O      0.768740000000     0.170840000000     0.712590000000    -0.499887   
O98      O      0.817670000000     0.215650000000     0.708560000000    -0.497261   
O99      O      0.772180000000     0.172410000000     0.804410000000    -0.498603   
O100     O      0.818680000000     0.102300000000     0.790380000000    -0.497394   
O101     O      0.886200000000     0.170780000000     0.789020000000    -0.499589   
O102     O      0.817500000000     0.101490000000     0.726520000000    -0.498622   
O103     O      0.818990000000     0.219010000000     0.801170000000    -0.500024   
O104     O      0.886390000000     0.167540000000     0.725560000000    -0.497999   
O105     O      0.819280000000     0.770030000000     0.710660000000    -0.505      
O106     O      0.771270000000     0.815480000000     0.708580000000    -0.498139   
O107     O      0.820870000000     0.770950000000     0.802730000000    -0.499026   
O108     O      0.888320000000     0.816800000000     0.784190000000    -0.496376   
O109     O      0.813760000000     0.887490000000     0.726890000000    -0.499598   
O110     O      0.884530000000     0.823760000000     0.721010000000    -0.501687   
O111     O      0.770780000000     0.814140000000     0.801220000000    -0.502848   
O112     O      0.820680000000     0.884390000000     0.790100000000    -0.502864   
O113     O      0.170260000000     0.769620000000     0.797900000000    -0.497729   
O114     O      0.218390000000     0.815490000000     0.798450000000    -0.496891   
O115     O      0.170070000000     0.770150000000     0.706180000000    -0.500788   
O116     O      0.102780000000     0.821760000000     0.719100000000    -0.498291   
O117     O      0.170570000000     0.884520000000     0.785150000000    -0.501463   
O118     O      0.102540000000     0.817490000000     0.782880000000    -0.496741   
O119     O      0.218040000000     0.816170000000     0.705650000000    -0.497042   
O120     O      0.172350000000     0.886790000000     0.721650000000    -0.498619   
O121     O      0.168870000000     0.216930000000     0.702460000000    -0.500567   
O122     O      0.216930000000     0.171020000000     0.702510000000    -0.498539   
O123     O      0.218770000000     0.168060000000     0.795210000000    -0.498386   
O124     O      0.104100000000     0.173130000000     0.783130000000    -0.497888   
O125     O      0.170170000000     0.101030000000     0.718860000000    -0.495461   
O126     O      0.100680000000     0.165280000000     0.719820000000    -0.498775   
O127     O      0.175070000000     0.217720000000     0.794180000000    -0.497781   
O128     O      0.169970000000     0.102200000000     0.782740000000    -0.498485   
S1       S      0.178170000000     0.950100000000     0.338710000000    -0.0105828  
S2       S      0.949000000000     0.821020000000     0.165780000000    -0.0123769  
S3       S      0.813240000000     0.949090000000     0.344790000000    -0.0110704  
S4       S      0.953360000000     0.185580000000     0.340270000000    -0.0114258  
S5       S      0.829600000000     0.699890000000     0.350270000000    -0.00895025 
S6       S      0.830120000000     0.701350000000     0.161790000000    -0.0130562  
S7       S      0.830760000000     0.287100000000     0.351050000000    -0.0115015  
S8       S      0.656370000000     0.202560000000     0.102440000000    -0.0102924  
S9       S      0.671130000000     0.449460000000     0.093760000000    -0.010955   
S10      S      0.199390000000     0.659310000000     0.410430000000    -0.0126058  
S11      S      0.199600000000     0.659520000000     0.096260000000    -0.010723   
S12      S      0.537650000000     0.679520000000     0.417350000000    -0.0103657  
S13      S      0.286810000000     0.156560000000     0.346210000000    -0.0108787  
S14      S      0.198550000000     0.327450000000     0.090440000000    -0.0126389  
S15      S      0.451300000000     0.319360000000     0.412600000000    -0.0113418  
S16      S      0.316750000000     0.447600000000     0.089470000000    -0.0121672  
S17      S      0.178170000000     0.950100000000     0.838710000000    -0.0103067  
S18      S      0.949010000000     0.821020000000     0.665780000000    -0.0121439  
S19      S      0.813240000000     0.949090000000     0.844800000000    -0.0107776  
S20      S      0.953360000000     0.185580000000     0.840270000000    -0.0111497  
S21      S      0.829600000000     0.699890000000     0.850270000000    -0.00869081 
S22      S      0.830120000000     0.701350000000     0.661790000000    -0.0129288  
S23      S      0.830760000000     0.287090000000     0.851040000000    -0.0112966  
S24      S      0.656370000000     0.202560000000     0.602440000000    -0.00991002 
S25      S      0.671140000000     0.449460000000     0.593760000000    -0.0107987  
S26      S      0.199390000000     0.659320000000     0.910430000000    -0.0120955  
S27      S      0.199600000000     0.659520000000     0.596260000000    -0.0104721  
S28      S      0.537650000000     0.679520000000     0.917350000000    -0.0102061  
S29      S      0.286810000000     0.156560000000     0.846210000000    -0.0106949  
S30      S      0.198550000000     0.327450000000     0.590440000000    -0.0122257  
S31      S      0.451300000000     0.319360000000     0.912600000000    -0.0112064  
S32      S      0.316750000000     0.447610000000     0.589470000000    -0.0120578  


