data_structure

_audit_creation_method RASPA-1.0
_audit_creation_date 2023-5-23
_audit_author_name 'Poobodin Mano'

_cell_length_a    38.6173
_cell_length_b    39.6025
_cell_length_c    39.9983
_cell_angle_alpha 89.9999
_cell_angle_beta  90.0096
_cell_angle_gamma 89.7137
_cell_volume      61170.3

_symmetry_cell_setting          triclinic
_symmetry_space_group_name_Hall 'P 1'
_symmetry_space_group_name_H-M  'P 1'
_symmetry_Int_Tables_number     1

_symmetry_equiv_pos_as_xyz 'x,y,z'

loop_
_atom_site_label
_atom_site_type_symbol
_atom_site_fract_x
_atom_site_fract_y
_atom_site_fract_z
_atom_site_charge
C1       C      0.305930000000     0.363670000000     0.707170000000     0.412874   
C2       C      0.303100000000     0.361920000000     0.586860000000     0.41355    
C3       C      0.227940000000     0.313680000000     0.645140000000     0.316496   
C4       C      0.246510000000     0.429190000000     0.651550000000     0.402625   
C5       C      0.138290000000     0.126670000000     0.584610000000     0.414206   
C6       C      0.137720000000     0.125530000000     0.704800000000     0.412861   
C7       C      0.195300000000     0.059280000000     0.649930000000     0.402979   
C8       C      0.215040000000     0.174270000000     0.638190000000     0.315652   
C9       C      0.346380000000     0.339370000000     0.335370000000     0.409833   
C10      C      0.342190000000     0.334390000000     0.457900000000     0.411806   
C11      C      0.283680000000     0.276680000000     0.397160000000     0.40368    
C12      C      0.406590000000     0.276770000000     0.391180000000     0.402973   
C13      C      0.094580000000     0.151230000000     0.333900000000     0.409671   
C14      C      0.098130000000     0.154950000000     0.456320000000     0.414198   
C15      C      0.156950000000     0.213250000000     0.396390000000     0.404527   
C16      C      0.034020000000     0.213340000000     0.390380000000     0.403298   
C17      C      0.344630000000     0.399090000000     0.833660000000     0.411574   
C18      C      0.349610000000     0.403130000000     0.954770000000     0.411764   
C19      C      0.408820000000     0.463660000000     0.894470000000     0.402617   
C20      C      0.285810000000     0.463700000000     0.889420000000     0.402495   
C21      C      0.099800000000     0.091790000000     0.832060000000     0.411534   
C22      C      0.094270000000     0.088910000000     0.953360000000     0.411865   
C23      C      0.035540000000     0.027890000000     0.893700000000     0.402156   
C24      C      0.158510000000     0.027900000000     0.888800000000     0.402504   
C25      C      0.059520000000     0.119850000000     0.082510000000     0.409604   
C26      C      0.060000000000     0.120100000000     0.205070000000     0.409674   
C27      C      0.000400000000     0.181870000000     0.147900000000     0.404094   
C28      C      0.000370000000     0.059090000000     0.140700000000     0.404167   
C29      C      0.381870000000     0.370940000000     0.206830000000     0.409793   
C30      C      0.382710000000     0.371610000000     0.084190000000     0.409868   
C31      C      0.441600000000     0.432170000000     0.142070000000     0.404047   
C32      C      0.441540000000     0.309380000000     0.149110000000     0.404254   
C33      C      0.006210000000     0.241570000000     0.149810000000     0.0327583  
C34      C      0.450510000000     0.217360000000     0.149360000000     0.032573   
C35      C      0.435710000000     0.249650000000     0.149750000000     0.0331378  
C36      C      0.491410000000     0.273870000000     0.150090000000     0.0326114  
C37      C      0.491460000000     0.467180000000     0.140460000000     0.0325197  
C38      C      0.435740000000     0.991910000000     0.140380000000     0.0331077  
C39      C      0.450520000000     0.024070000000     0.140050000000     0.0326785  
C40      C      0.006230000000     0.499330000000     0.140010000000     0.0329173  
C41      C      0.064780000000     0.124640000000     0.991640000000     0.0328756  
C42      C      0.107470000000     0.086640000000     0.011260000000     0.032996   
C43      C      0.099040000000     0.094970000000     0.044200000000     0.0329773  
C44      C      0.055490000000     0.132030000000     0.024580000000     0.033098   
C45      C      0.378230000000     0.367020000000     0.993300000000     0.0329384  
C46      C      0.335930000000     0.405610000000     0.012560000000     0.0329449  
C47      C      0.343890000000     0.397090000000     0.045580000000     0.0330407  
C48      C      0.387060000000     0.359430000000     0.026300000000     0.033178   
C49      C      0.224360000000     0.461260000000     0.887860000000     0.0332972  
C50      C      0.252210000000     0.014160000000     0.888050000000     0.0325999  
C51      C      0.219970000000     0.030340000000     0.887890000000     0.0331674  
C52      C      0.192110000000     0.477430000000     0.887700000000     0.0325011  
C53      C      0.441950000000     0.014130000000     0.894500000000     0.0323565  
C54      C      0.470340000000     0.461230000000     0.894910000000     0.0332047  
C55      C      0.502430000000     0.477410000000     0.894650000000     0.0323408  
C56      C      0.474040000000     0.030310000000     0.894340000000     0.0332221  
C57      C      0.065570000000     0.115130000000     0.295890000000     0.0328005  
C58      C      0.108360000000     0.152530000000     0.276140000000     0.0331371  
C59      C      0.099900000000     0.144210000000     0.243230000000     0.0330951  
C60      C      0.056270000000     0.107740000000     0.262970000000     0.0331992  
C61      C      0.375970000000     0.375400000000     0.297690000000     0.0327318  
C62      C      0.332900000000     0.338530000000     0.277530000000     0.033147   
C63      C      0.341610000000     0.346940000000     0.244700000000     0.0329931  
C64      C      0.385520000000     0.382870000000     0.264850000000     0.0331087  
C65      C      0.250430000000     0.226410000000     0.398000000000     0.0329459  
C66      C      0.222300000000     0.279480000000     0.397640000000     0.0338365  
C67      C      0.190200000000     0.263480000000     0.397360000000     0.0326975  
C68      C      0.218320000000     0.210410000000     0.397910000000     0.0361368  
C69      C      0.440370000000     0.226550000000     0.388970000000     0.0327469  
C70      C      0.467960000000     0.279610000000     0.389750000000     0.0332051  
C71      C      0.500240000000     0.263600000000     0.389470000000     0.0327762  
C72      C      0.472660000000     0.210540000000     0.388810000000     0.0332495  
C73      C      0.135680000000     0.110700000000     0.527480000000     0.0324039  
C74      C      0.100350000000     0.155190000000     0.547340000000     0.035169   
C75      C      0.090210000000     0.162400000000     0.514620000000     0.0336147  
C76      C      0.124970000000     0.117470000000     0.494820000000     0.034836   
C77      C      0.139560000000     0.137310000000     0.763010000000     0.0327628  
C78      C      0.096850000000     0.100830000000     0.741500000000     0.0327941  
C79      C      0.087610000000     0.091720000000     0.773980000000     0.0330915  
C80      C      0.129500000000     0.129050000000     0.795550000000     0.0330122  
C81      C      0.304710000000     0.377850000000     0.529650000000     0.0327845  
C82      C      0.340410000000     0.333410000000     0.548970000000     0.0331945  
C83      C      0.350260000000     0.326390000000     0.516130000000     0.0332198  
C84      C      0.315160000000     0.371310000000     0.496850000000     0.0329698  
C85      C      0.315230000000     0.360990000000     0.797810000000     0.0331215  
C86      C      0.356420000000     0.398630000000     0.775500000000     0.0330014  
C87      C      0.346990000000     0.389080000000     0.743200000000     0.0332985  
C88      C      0.305000000000     0.352260000000     0.765450000000     0.0327842  
C89      C      0.160920000000     0.215130000000     0.487940000000     0.0245821  
C90      C      0.199430000000     0.169850000000     0.499240000000     0.0186422  
C91      C      0.196930000000     0.176570000000     0.533450000000     0.0224886  
C92      C      0.158380000000     0.221820000000     0.522140000000     0.016819   
C93      C      0.242620000000     0.021210000000     0.655520000000     0.0327143  
C94      C      0.185940000000     0.500140000000     0.648910000000     0.0337527  
C95      C      0.198860000000     0.467190000000     0.649340000000     0.0328915  
C96      C      0.255550000000     0.988250000000     0.655950000000     0.0334704  
C97      C      0.305930000000     0.863670000000     0.707170000000     0.412877   
C98      C      0.303100000000     0.861920000000     0.586860000000     0.413546   
C99      C      0.227940000000     0.813680000000     0.645140000000     0.316269   
C100     C      0.246510000000     0.929190000000     0.651550000000     0.402942   
C101     C      0.138290000000     0.626670000000     0.584610000000     0.414195   
C102     C      0.137720000000     0.625530000000     0.704800000000     0.412865   
C103     C      0.195300000000     0.559280000000     0.649930000000     0.402984   
C104     C      0.215040000000     0.674270000000     0.638190000000     0.315782   
C105     C      0.346380000000     0.839370000000     0.335370000000     0.409834   
C106     C      0.342190000000     0.834390000000     0.457900000000     0.41181    
C107     C      0.283680000000     0.776680000000     0.397160000000     0.403473   
C108     C      0.406590000000     0.776770000000     0.391180000000     0.40287    
C109     C      0.094580000000     0.651230000000     0.333900000000     0.409671   
C110     C      0.098130000000     0.654950000000     0.456320000000     0.414199   
C111     C      0.156950000000     0.713250000000     0.396390000000     0.404529   
C112     C      0.034020000000     0.713340000000     0.390380000000     0.403297   
C113     C      0.344620000000     0.899090000000     0.833660000000     0.411581   
C114     C      0.349610000000     0.903130000000     0.954770000000     0.411766   
C115     C      0.408820000000     0.963660000000     0.894470000000     0.402618   
C116     C      0.285810000000     0.963700000000     0.889420000000     0.402742   
C117     C      0.099800000000     0.591790000000     0.832060000000     0.411491   
C118     C      0.094270000000     0.588910000000     0.953360000000     0.411865   
C119     C      0.035540000000     0.527890000000     0.893700000000     0.402153   
C120     C      0.158510000000     0.527900000000     0.888800000000     0.402505   
C121     C      0.059520000000     0.619850000000     0.082510000000     0.409604   
C122     C      0.060000000000     0.620100000000     0.205070000000     0.409674   
C123     C      0.000400000000     0.681870000000     0.147900000000     0.404092   
C124     C      0.000370000000     0.559090000000     0.140700000000     0.404172   
C125     C      0.381870000000     0.870940000000     0.206830000000     0.409796   
C126     C      0.382710000000     0.871610000000     0.084190000000     0.409648   
C127     C      0.441600000000     0.932170000000     0.142070000000     0.404356   
C128     C      0.441530000000     0.809380000000     0.149110000000     0.404528   
C129     C      0.006210000000     0.741570000000     0.149810000000     0.0327409  
C130     C      0.450510000000     0.717360000000     0.149360000000     0.0325294  
C131     C      0.435720000000     0.749650000000     0.149750000000     0.0332091  
C132     C      0.491410000000     0.773870000000     0.150090000000     0.0326078  
C133     C      0.491460000000     0.967180000000     0.140460000000     0.0325354  
C134     C      0.435750000000     0.491910000000     0.140380000000     0.0331738  
C135     C      0.450520000000     0.524070000000     0.140050000000     0.0326297  
C136     C      0.006230000000     0.999330000000     0.140010000000     0.0329212  
C137     C      0.064780000000     0.624640000000     0.991640000000     0.0328757  
C138     C      0.107470000000     0.586640000000     0.011260000000     0.0329962  
C139     C      0.099040000000     0.594970000000     0.044200000000     0.0329773  
C140     C      0.055490000000     0.632030000000     0.024580000000     0.033098   
C141     C      0.378230000000     0.867020000000     0.993300000000     0.0329518  
C142     C      0.335930000000     0.905610000000     0.012560000000     0.032951   
C143     C      0.343890000000     0.897090000000     0.045580000000     0.0330282  
C144     C      0.387060000000     0.859430000000     0.026300000000     0.0331502  
C145     C      0.224360000000     0.961260000000     0.887860000000     0.0333085  
C146     C      0.252210000000     0.514160000000     0.888050000000     0.0325597  
C147     C      0.219970000000     0.530340000000     0.887890000000     0.0331869  
C148     C      0.192110000000     0.977430000000     0.887700000000     0.0324909  
C149     C      0.441950000000     0.514130000000     0.894500000000     0.0323506  
C150     C      0.470340000000     0.961230000000     0.894910000000     0.0332228  
C151     C      0.502430000000     0.977410000000     0.894650000000     0.0323173  
C152     C      0.474040000000     0.530310000000     0.894340000000     0.0332292  
C153     C      0.065570000000     0.615130000000     0.295890000000     0.0328003  
C154     C      0.108360000000     0.652530000000     0.276140000000     0.0331371  
C155     C      0.099900000000     0.644210000000     0.243230000000     0.0330951  
C156     C      0.056270000000     0.607740000000     0.262970000000     0.0331991  
C157     C      0.375970000000     0.875400000000     0.297690000000     0.0327183  
C158     C      0.332900000000     0.838530000000     0.277530000000     0.0331289  
C159     C      0.341610000000     0.846950000000     0.244700000000     0.0330544  
C160     C      0.385520000000     0.882870000000     0.264850000000     0.0331307  
C161     C      0.250430000000     0.726410000000     0.398000000000     0.0329282  
C162     C      0.222300000000     0.779490000000     0.397640000000     0.0337537  
C163     C      0.190200000000     0.763480000000     0.397360000000     0.0327476  
C164     C      0.218320000000     0.710410000000     0.397910000000     0.0361491  
C165     C      0.440370000000     0.726550000000     0.388970000000     0.032791   
C166     C      0.467950000000     0.779610000000     0.389740000000     0.0332347  
C167     C      0.500240000000     0.763600000000     0.389470000000     0.032763   
C168     C      0.472660000000     0.710540000000     0.388810000000     0.0332255  
C169     C      0.135680000000     0.610690000000     0.527480000000     0.0322796  
C170     C      0.100350000000     0.655190000000     0.547340000000     0.0352219  
C171     C      0.090210000000     0.662400000000     0.514620000000     0.0335981  
C172     C      0.124970000000     0.617470000000     0.494820000000     0.0348986  
C173     C      0.139560000000     0.637310000000     0.763010000000     0.0327449  
C174     C      0.096850000000     0.600830000000     0.741500000000     0.0328136  
C175     C      0.087610000000     0.591720000000     0.773980000000     0.0330448  
C176     C      0.129500000000     0.629050000000     0.795550000000     0.0330574  
C177     C      0.304700000000     0.877850000000     0.529650000000     0.0327376  
C178     C      0.340410000000     0.833410000000     0.548970000000     0.0331923  
C179     C      0.350260000000     0.826390000000     0.516130000000     0.0332242  
C180     C      0.315160000000     0.871310000000     0.496850000000     0.0329984  
C181     C      0.315240000000     0.860990000000     0.797810000000     0.0331899  
C182     C      0.356420000000     0.898630000000     0.775500000000     0.0330167  
C183     C      0.346990000000     0.889080000000     0.743200000000     0.0332881  
C184     C      0.305000000000     0.852260000000     0.765450000000     0.0327495  
C185     C      0.160920000000     0.715130000000     0.487940000000     0.0245883  
C186     C      0.199430000000     0.669850000000     0.499240000000     0.0186776  
C187     C      0.196930000000     0.676560000000     0.533450000000     0.0224265  
C188     C      0.158380000000     0.721820000000     0.522140000000     0.0168161  
C189     C      0.242620000000     0.521210000000     0.655520000000     0.0327444  
C190     C      0.185940000000     0.000140000000     0.648910000000     0.0337476  
C191     C      0.198860000000     0.967190000000     0.649340000000     0.0329016  
C192     C      0.255550000000     0.488250000000     0.655950000000     0.0334238  
C193     C      0.805930000000     0.363660000000     0.707170000000     0.412862   
C194     C      0.803100000000     0.361910000000     0.586860000000     0.413135   
C195     C      0.727940000000     0.313670000000     0.645150000000     0.316446   
C196     C      0.746510000000     0.429180000000     0.651550000000     0.402839   
C197     C      0.638290000000     0.126670000000     0.584600000000     0.414045   
C198     C      0.637720000000     0.125520000000     0.704790000000     0.41302    
C199     C      0.695300000000     0.059270000000     0.649930000000     0.402856   
C200     C      0.715050000000     0.174260000000     0.638180000000     0.315782   
C201     C      0.846380000000     0.339360000000     0.335370000000     0.409649   
C202     C      0.842190000000     0.334380000000     0.457900000000     0.411974   
C203     C      0.783680000000     0.276670000000     0.397160000000     0.403676   
C204     C      0.906590000000     0.276770000000     0.391180000000     0.403142   
C205     C      0.594580000000     0.151240000000     0.333900000000     0.410088   
C206     C      0.598120000000     0.154950000000     0.456320000000     0.414332   
C207     C      0.656950000000     0.213250000000     0.396390000000     0.404518   
C208     C      0.534020000000     0.213340000000     0.390390000000     0.403284   
C209     C      0.844630000000     0.399090000000     0.833670000000     0.411894   
C210     C      0.849610000000     0.403120000000     0.954770000000     0.411743   
C211     C      0.908820000000     0.463660000000     0.894480000000     0.402865   
C212     C      0.785810000000     0.463690000000     0.889430000000     0.402768   
C213     C      0.599800000000     0.091780000000     0.832050000000     0.411722   
C214     C      0.594270000000     0.088910000000     0.953360000000     0.411727   
C215     C      0.535540000000     0.027890000000     0.893700000000     0.402173   
C216     C      0.658510000000     0.027890000000     0.888800000000     0.402498   
C217     C      0.559520000000     0.119850000000     0.082500000000     0.409592   
C218     C      0.560000000000     0.120110000000     0.205070000000     0.409711   
C219     C      0.500400000000     0.181870000000     0.147890000000     0.404382   
C220     C      0.500380000000     0.059090000000     0.140700000000     0.404469   
C221     C      0.881870000000     0.370940000000     0.206830000000     0.409707   
C222     C      0.882710000000     0.371610000000     0.084190000000     0.409769   
C223     C      0.941600000000     0.432170000000     0.142080000000     0.404074   
C224     C      0.941530000000     0.309380000000     0.149110000000     0.404307   
C225     C      0.506210000000     0.241570000000     0.149810000000     0.0330962  
C226     C      0.950510000000     0.217350000000     0.149370000000     0.0325366  
C227     C      0.935710000000     0.249650000000     0.149760000000     0.0331952  
C228     C      0.991410000000     0.273870000000     0.150100000000     0.0329523  
C229     C      0.991460000000     0.467180000000     0.140470000000     0.0328883  
C230     C      0.935740000000     0.991910000000     0.140380000000     0.033172   
C231     C      0.950510000000     0.024060000000     0.140050000000     0.0325683  
C232     C      0.506230000000     0.499330000000     0.140010000000     0.0332595  
C233     C      0.564780000000     0.124640000000     0.991640000000     0.0328527  
C234     C      0.607480000000     0.086640000000     0.011250000000     0.0329906  
C235     C      0.599040000000     0.094970000000     0.044200000000     0.0330106  
C236     C      0.555490000000     0.132030000000     0.024570000000     0.0331121  
C237     C      0.878230000000     0.367020000000     0.993310000000     0.0329332  
C238     C      0.835930000000     0.405610000000     0.012570000000     0.0328778  
C239     C      0.843900000000     0.397090000000     0.045580000000     0.033091   
C240     C      0.887060000000     0.359420000000     0.026310000000     0.0332168  
C241     C      0.724360000000     0.461250000000     0.887860000000     0.0331709  
C242     C      0.752210000000     0.014160000000     0.888050000000     0.032479   
C243     C      0.719970000000     0.030330000000     0.887890000000     0.033274   
C244     C      0.692120000000     0.477430000000     0.887700000000     0.0326106  
C245     C      0.941950000000     0.014130000000     0.894500000000     0.0323611  
C246     C      0.970340000000     0.461230000000     0.894910000000     0.0333958  
C247     C      0.002430000000     0.477410000000     0.894650000000     0.0321514  
C248     C      0.974040000000     0.030310000000     0.894340000000     0.0333334  
C249     C      0.565560000000     0.115130000000     0.295880000000     0.0328591  
C250     C      0.608350000000     0.152530000000     0.276140000000     0.0331798  
C251     C      0.599900000000     0.144210000000     0.243230000000     0.0330784  
C252     C      0.556260000000     0.107740000000     0.262970000000     0.0331185  
C253     C      0.875970000000     0.375400000000     0.297690000000     0.0327048  
C254     C      0.832900000000     0.338530000000     0.277530000000     0.0331161  
C255     C      0.841610000000     0.346940000000     0.244710000000     0.0329839  
C256     C      0.885520000000     0.382870000000     0.264850000000     0.0331753  
C257     C      0.750430000000     0.226410000000     0.398000000000     0.032941   
C258     C      0.722300000000     0.279480000000     0.397640000000     0.0339075  
C259     C      0.690200000000     0.263480000000     0.397360000000     0.0326683  
C260     C      0.718320000000     0.210410000000     0.397910000000     0.0361346  
C261     C      0.940370000000     0.226540000000     0.388970000000     0.032726   
C262     C      0.967960000000     0.279610000000     0.389750000000     0.0332771  
C263     C      0.000240000000     0.263600000000     0.389470000000     0.0325867  
C264     C      0.972660000000     0.210540000000     0.388810000000     0.0334267  
C265     C      0.635680000000     0.110690000000     0.527480000000     0.0324398  
C266     C      0.600350000000     0.155190000000     0.547330000000     0.0351688  
C267     C      0.590210000000     0.162400000000     0.514620000000     0.0335976  
C268     C      0.624970000000     0.117460000000     0.494810000000     0.0347612  
C269     C      0.639560000000     0.137310000000     0.763000000000     0.0327906  
C270     C      0.596850000000     0.100820000000     0.741490000000     0.0327678  
C271     C      0.587610000000     0.091710000000     0.773970000000     0.0330451  
C272     C      0.629500000000     0.129050000000     0.795550000000     0.033009   
C273     C      0.804710000000     0.377850000000     0.529660000000     0.0327298  
C274     C      0.840410000000     0.333400000000     0.548980000000     0.0331942  
C275     C      0.850260000000     0.326380000000     0.516130000000     0.0332102  
C276     C      0.815160000000     0.371300000000     0.496850000000     0.0330645  
C277     C      0.815240000000     0.360980000000     0.797810000000     0.0331104  
C278     C      0.856420000000     0.398630000000     0.775510000000     0.0330643  
C279     C      0.846990000000     0.389070000000     0.743200000000     0.0333105  
C280     C      0.805000000000     0.352260000000     0.765450000000     0.0328316  
C281     C      0.660920000000     0.215130000000     0.487940000000     0.0245167  
C282     C      0.699430000000     0.169850000000     0.499240000000     0.0186991  
C283     C      0.696930000000     0.176560000000     0.533450000000     0.0224571  
C284     C      0.658390000000     0.221810000000     0.522140000000     0.0168745  
C285     C      0.742620000000     0.021200000000     0.655530000000     0.0327349  
C286     C      0.685940000000     0.500130000000     0.648900000000     0.0337078  
C287     C      0.698860000000     0.467180000000     0.649330000000     0.0329772  
C288     C      0.755550000000     0.988240000000     0.655960000000     0.0333862  
C289     C      0.805940000000     0.863660000000     0.707170000000     0.412833   
C290     C      0.803100000000     0.861910000000     0.586860000000     0.413137   
C291     C      0.727940000000     0.813670000000     0.645150000000     0.31622    
C292     C      0.746510000000     0.929180000000     0.651550000000     0.402839   
C293     C      0.638290000000     0.626670000000     0.584600000000     0.414047   
C294     C      0.637720000000     0.625520000000     0.704790000000     0.41323    
C295     C      0.695300000000     0.559270000000     0.649930000000     0.402858   
C296     C      0.715050000000     0.674260000000     0.638180000000     0.315798   
C297     C      0.846380000000     0.839370000000     0.335370000000     0.409879   
C298     C      0.842190000000     0.834380000000     0.457900000000     0.411676   
C299     C      0.783680000000     0.776670000000     0.397160000000     0.403978   
C300     C      0.906590000000     0.776770000000     0.391180000000     0.402935   
C301     C      0.594580000000     0.651240000000     0.333900000000     0.410084   
C302     C      0.598130000000     0.654950000000     0.456320000000     0.414331   
C303     C      0.656950000000     0.713250000000     0.396390000000     0.404517   
C304     C      0.534020000000     0.713340000000     0.390390000000     0.403283   
C305     C      0.844630000000     0.899090000000     0.833670000000     0.412054   
C306     C      0.849610000000     0.903120000000     0.954770000000     0.411743   
C307     C      0.908820000000     0.963660000000     0.894480000000     0.402864   
C308     C      0.785810000000     0.963690000000     0.889420000000     0.402811   
C309     C      0.599800000000     0.591780000000     0.832050000000     0.411516   
C310     C      0.594270000000     0.588910000000     0.953360000000     0.411721   
C311     C      0.535540000000     0.527890000000     0.893700000000     0.402374   
C312     C      0.658510000000     0.527890000000     0.888800000000     0.402703   
C313     C      0.559520000000     0.619850000000     0.082500000000     0.409834   
C314     C      0.560000000000     0.620110000000     0.205070000000     0.409644   
C315     C      0.500400000000     0.681870000000     0.147890000000     0.404383   
C316     C      0.500370000000     0.559090000000     0.140700000000     0.404438   
C317     C      0.881870000000     0.870940000000     0.206830000000     0.409705   
C318     C      0.882710000000     0.871610000000     0.084190000000     0.409542   
C319     C      0.941600000000     0.932170000000     0.142070000000     0.404062   
C320     C      0.941530000000     0.809380000000     0.149110000000     0.404556   
C321     C      0.506210000000     0.741570000000     0.149810000000     0.0330947  
C322     C      0.950510000000     0.717350000000     0.149370000000     0.0324894  
C323     C      0.935720000000     0.749650000000     0.149760000000     0.0332736  
C324     C      0.991410000000     0.773870000000     0.150100000000     0.0329819  
C325     C      0.991460000000     0.967170000000     0.140470000000     0.0328854  
C326     C      0.935740000000     0.491910000000     0.140380000000     0.0331238  
C327     C      0.950520000000     0.524060000000     0.140050000000     0.032668   
C328     C      0.506230000000     0.999330000000     0.140010000000     0.0332379  
C329     C      0.564780000000     0.624640000000     0.991640000000     0.0328863  
C330     C      0.607480000000     0.586640000000     0.011250000000     0.0329739  
C331     C      0.599040000000     0.594970000000     0.044200000000     0.033052   
C332     C      0.555490000000     0.632030000000     0.024570000000     0.033068   
C333     C      0.878230000000     0.867020000000     0.993310000000     0.0329436  
C334     C      0.835930000000     0.905610000000     0.012570000000     0.0329227  
C335     C      0.843890000000     0.897090000000     0.045580000000     0.0330003  
C336     C      0.887060000000     0.859420000000     0.026310000000     0.0332026  
C337     C      0.724360000000     0.961250000000     0.887860000000     0.0332384  
C338     C      0.752210000000     0.514160000000     0.888050000000     0.0325247  
C339     C      0.719970000000     0.530330000000     0.887890000000     0.0332606  
C340     C      0.692120000000     0.977430000000     0.887700000000     0.032567   
C341     C      0.941950000000     0.514130000000     0.894500000000     0.0323879  
C342     C      0.970340000000     0.961230000000     0.894910000000     0.0333907  
C343     C      0.002430000000     0.977410000000     0.894650000000     0.0321527  
C344     C      0.974030000000     0.530310000000     0.894340000000     0.0332605  
C345     C      0.565560000000     0.615130000000     0.295880000000     0.032847   
C346     C      0.608360000000     0.652530000000     0.276140000000     0.0331146  
C347     C      0.599900000000     0.644210000000     0.243230000000     0.0331131  
C348     C      0.556260000000     0.607740000000     0.262970000000     0.0331449  
C349     C      0.875970000000     0.875400000000     0.297690000000     0.0327093  
C350     C      0.832900000000     0.838530000000     0.277530000000     0.0331601  
C351     C      0.841610000000     0.846940000000     0.244710000000     0.0329645  
C352     C      0.885520000000     0.882870000000     0.264850000000     0.0331728  
C353     C      0.750430000000     0.726410000000     0.398000000000     0.0329842  
C354     C      0.722300000000     0.779480000000     0.397640000000     0.0338763  
C355     C      0.690200000000     0.763480000000     0.397360000000     0.0326789  
C356     C      0.718320000000     0.710410000000     0.397910000000     0.0361148  
C357     C      0.940380000000     0.726540000000     0.388970000000     0.0327068  
C358     C      0.967960000000     0.779610000000     0.389750000000     0.0332999  
C359     C      0.000240000000     0.763600000000     0.389470000000     0.0325774  
C360     C      0.972660000000     0.710540000000     0.388810000000     0.0334233  
C361     C      0.635670000000     0.610690000000     0.527480000000     0.0324886  
C362     C      0.600350000000     0.655190000000     0.547330000000     0.0351662  
C363     C      0.590210000000     0.662400000000     0.514620000000     0.0336057  
C364     C      0.624970000000     0.617460000000     0.494810000000     0.034728   
C365     C      0.639560000000     0.637310000000     0.763000000000     0.0328003  
C366     C      0.596850000000     0.600820000000     0.741490000000     0.0327483  
C367     C      0.587610000000     0.591720000000     0.773970000000     0.0330859  
C368     C      0.629500000000     0.629050000000     0.795550000000     0.0329968  
C369     C      0.804710000000     0.877850000000     0.529660000000     0.0327598  
C370     C      0.840410000000     0.833400000000     0.548980000000     0.033203   
C371     C      0.850260000000     0.826380000000     0.516130000000     0.0331927  
C372     C      0.815160000000     0.871300000000     0.496850000000     0.0330406  
C373     C      0.815240000000     0.860980000000     0.797810000000     0.0331458  
C374     C      0.856420000000     0.898630000000     0.775510000000     0.0330677  
C375     C      0.846990000000     0.889070000000     0.743200000000     0.0333206  
C376     C      0.805000000000     0.852250000000     0.765450000000     0.0327832  
C377     C      0.660920000000     0.715130000000     0.487940000000     0.0245482  
C378     C      0.699430000000     0.669850000000     0.499240000000     0.0187016  
C379     C      0.696930000000     0.676560000000     0.533450000000     0.0224533  
C380     C      0.658390000000     0.721820000000     0.522140000000     0.0168117  
C381     C      0.742620000000     0.521200000000     0.655530000000     0.032734   
C382     C      0.685940000000     0.000130000000     0.648900000000     0.0337114  
C383     C      0.698860000000     0.967180000000     0.649330000000     0.032973   
C384     C      0.755550000000     0.488240000000     0.655960000000     0.0333898  
H1       H      0.034230000000     0.239590000000     0.149810000000     0.0454095  
H2       H      0.433390000000     0.195740000000     0.149010000000     0.0453634  
H3       H      0.407700000000     0.251640000000     0.149670000000     0.0453675  
H4       H      0.508540000000     0.295490000000     0.150290000000     0.0453632  
H5       H      0.508590000000     0.445400000000     0.140680000000     0.0453449  
H6       H      0.407730000000     0.990190000000     0.140540000000     0.0454265  
H7       H      0.433380000000     0.045840000000     0.139980000000     0.0453163  
H8       H      0.034250000000     0.501050000000     0.139920000000     0.0454588  
H9       H      0.050400000000     0.136740000000     0.971620000000     0.0447437  
H10      H      0.127860000000     0.068190000000     0.007050000000     0.0439902  
H11      H      0.113040000000     0.082480000000     0.064230000000     0.0449854  
H12      H      0.034450000000     0.149770000000     0.028770000000     0.0439992  
H13      H      0.392620000000     0.354720000000     0.973410000000     0.0448184  
H14      H      0.315880000000     0.424360000000     0.008190000000     0.043959   
H15      H      0.329900000000     0.409760000000     0.065490000000     0.0449512  
H16      H      0.407780000000     0.341360000000     0.030660000000     0.0441395  
H17      H      0.224870000000     0.433870000000     0.887880000000     0.0454932  
H18      H      0.275290000000     0.029650000000     0.888250000000     0.0459251  
H19      H      0.219460000000     0.057720000000     0.887970000000     0.0455438  
H20      H      0.169030000000     0.461950000000     0.887620000000     0.0459684  
H21      H      0.418710000000     0.029620000000     0.894400000000     0.0459078  
H22      H      0.470100000000     0.433850000000     0.895120000000     0.0454238  
H23      H      0.025670000000     0.461930000000     0.894690000000     0.0459403  
H24      H      0.474260000000     0.057690000000     0.894110000000     0.0454635  
H25      H      0.051120000000     0.103320000000     0.315940000000     0.0447643  
H26      H      0.128770000000     0.170770000000     0.280280000000     0.0443373  
H27      H      0.113920000000     0.156480000000     0.223170000000     0.0450577  
H28      H      0.035170000000     0.090250000000     0.258830000000     0.0440738  
H29      H      0.390430000000     0.386950000000     0.317880000000     0.0447024  
H30      H      0.312280000000     0.320470000000     0.281470000000     0.0443489  
H31      H      0.327550000000     0.334920000000     0.224510000000     0.0450122  
H32      H      0.406810000000     0.400170000000     0.260900000000     0.0440058  
H33      H      0.273590000000     0.210820000000     0.398240000000     0.0463588  
H34      H      0.222670000000     0.306860000000     0.397530000000     0.0452812  
H35      H      0.167040000000     0.279080000000     0.397090000000     0.0453953  
H36      H      0.217930000000     0.183030000000     0.398080000000     0.0463063  
H37      H      0.417370000000     0.210950000000     0.388810000000     0.0461884  
H38      H      0.467300000000     0.306990000000     0.390180000000     0.0452957  
H39      H      0.023240000000     0.279200000000     0.389750000000     0.0458888  
H40      H      0.473320000000     0.183160000000     0.388500000000     0.0453202  
H41      H      0.154040000000     0.090280000000     0.531450000000     0.0432813  
H42      H      0.090240000000     0.170920000000     0.567300000000     0.0449972  
H43      H      0.072580000000     0.183420000000     0.510590000000     0.0431131  
H44      H      0.135670000000     0.102240000000     0.474760000000     0.0441089  
H45      H      0.160630000000     0.155010000000     0.759720000000     0.043983   
H46      H      0.083440000000     0.088830000000     0.720880000000     0.0451239  
H47      H      0.067260000000     0.073220000000     0.777200000000     0.0440438  
H48      H      0.143300000000     0.140530000000     0.816220000000     0.0448446  
H49      H      0.286370000000     0.398240000000     0.533890000000     0.0441874  
H50      H      0.350870000000     0.317690000000     0.568790000000     0.0451709  
H51      H      0.368030000000     0.305540000000     0.511850000000     0.0446466  
H52      H      0.304300000000     0.386670000000     0.476960000000     0.0443989  
H53      H      0.301790000000     0.349540000000     0.818700000000     0.0449612  
H54      H      0.376530000000     0.417430000000     0.778380000000     0.0441298  
H55      H      0.360010000000     0.401060000000     0.722340000000     0.0455108  
H56      H      0.284140000000     0.334270000000     0.762520000000     0.0439078  
H57      H      0.146660000000     0.230270000000     0.470080000000     0.0331905  
H58      H      0.215490000000     0.149320000000     0.490260000000     0.0381585  
H59      H      0.210990000000     0.161290000000     0.551350000000     0.03346    
H60      H      0.142130000000     0.242210000000     0.531120000000     0.0395245  
H61      H      0.260820000000     0.041830000000     0.657970000000     0.0469926  
H62      H      0.158240000000     0.503690000000     0.646020000000     0.045937   
H63      H      0.180670000000     0.446570000000     0.646750000000     0.0474765  
H64      H      0.283270000000     0.984680000000     0.658710000000     0.0455935  
H65      H      0.034230000000     0.739590000000     0.149810000000     0.0454132  
H66      H      0.433390000000     0.695740000000     0.149010000000     0.0453742  
H67      H      0.407700000000     0.751640000000     0.149670000000     0.0453475  
H68      H      0.508530000000     0.795490000000     0.150290000000     0.0453688  
H69      H      0.508590000000     0.945400000000     0.140680000000     0.0453376  
H70      H      0.407730000000     0.490190000000     0.140540000000     0.0454143  
H71      H      0.433380000000     0.545840000000     0.139980000000     0.0453241  
H72      H      0.034250000000     0.001050000000     0.139920000000     0.0454592  
H73      H      0.050400000000     0.636740000000     0.971620000000     0.044744   
H74      H      0.127860000000     0.568190000000     0.007050000000     0.0439904  
H75      H      0.113040000000     0.582480000000     0.064230000000     0.0449855  
H76      H      0.034450000000     0.649770000000     0.028770000000     0.0439991  
H77      H      0.392620000000     0.854720000000     0.973410000000     0.0448167  
H78      H      0.315880000000     0.924360000000     0.008190000000     0.043957   
H79      H      0.329900000000     0.909760000000     0.065490000000     0.0449559  
H80      H      0.407770000000     0.841360000000     0.030660000000     0.0441485  
H81      H      0.224870000000     0.933870000000     0.887880000000     0.0454864  
H82      H      0.275290000000     0.529640000000     0.888250000000     0.0459468  
H83      H      0.219460000000     0.557720000000     0.887960000000     0.0455394  
H84      H      0.169030000000     0.961950000000     0.887620000000     0.0459696  
H85      H      0.418710000000     0.529620000000     0.894400000000     0.0459086  
H86      H      0.470110000000     0.933850000000     0.895120000000     0.0454114  
H87      H      0.025670000000     0.961930000000     0.894690000000     0.0459388  
H88      H      0.474260000000     0.557690000000     0.894110000000     0.0454596  
H89      H      0.051120000000     0.603320000000     0.315940000000     0.0447639  
H90      H      0.128770000000     0.670770000000     0.280280000000     0.0443374  
H91      H      0.113920000000     0.656480000000     0.223170000000     0.0450577  
H92      H      0.035170000000     0.590250000000     0.258830000000     0.0440732  
H93      H      0.390430000000     0.886950000000     0.317880000000     0.0447043  
H94      H      0.312280000000     0.820460000000     0.281470000000     0.0443559  
H95      H      0.327550000000     0.834920000000     0.224510000000     0.0449936  
H96      H      0.406820000000     0.900170000000     0.260900000000     0.0440011  
H97      H      0.273590000000     0.710820000000     0.398240000000     0.0463626  
H98      H      0.222670000000     0.806860000000     0.397530000000     0.0453031  
H99      H      0.167040000000     0.779080000000     0.397090000000     0.0453833  
H100     H      0.217930000000     0.683030000000     0.398080000000     0.0463041  
H101     H      0.417370000000     0.710940000000     0.388810000000     0.0461735  
H102     H      0.467300000000     0.806990000000     0.390180000000     0.0452857  
H103     H      0.023240000000     0.779200000000     0.389750000000     0.0458914  
H104     H      0.473320000000     0.683160000000     0.388500000000     0.045327   
H105     H      0.154040000000     0.590280000000     0.531450000000     0.0433125  
H106     H      0.090240000000     0.670920000000     0.567300000000     0.0449848  
H107     H      0.072580000000     0.683420000000     0.510590000000     0.0431174  
H108     H      0.135670000000     0.602240000000     0.474760000000     0.0440935  
H109     H      0.160630000000     0.655010000000     0.759720000000     0.0439879  
H110     H      0.083440000000     0.588830000000     0.720880000000     0.045119   
H111     H      0.067260000000     0.573220000000     0.777200000000     0.0440544  
H112     H      0.143300000000     0.640530000000     0.816220000000     0.044833   
H113     H      0.286370000000     0.898240000000     0.533890000000     0.0441976  
H114     H      0.350870000000     0.817690000000     0.568790000000     0.0451729  
H115     H      0.368030000000     0.805540000000     0.511850000000     0.0446469  
H116     H      0.304300000000     0.886670000000     0.476960000000     0.044391   
H117     H      0.301790000000     0.849540000000     0.818700000000     0.0449384  
H118     H      0.376530000000     0.917430000000     0.778380000000     0.0441276  
H119     H      0.360010000000     0.901060000000     0.722340000000     0.0455118  
H120     H      0.284140000000     0.834270000000     0.762520000000     0.0439168  
H121     H      0.146660000000     0.730270000000     0.470080000000     0.0331894  
H122     H      0.215490000000     0.649320000000     0.490260000000     0.0381512  
H123     H      0.210990000000     0.661290000000     0.551350000000     0.0334809  
H124     H      0.142130000000     0.742210000000     0.531120000000     0.0395265  
H125     H      0.260820000000     0.541840000000     0.657970000000     0.0469941  
H126     H      0.158240000000     0.003690000000     0.646020000000     0.0459386  
H127     H      0.180670000000     0.946570000000     0.646750000000     0.0474697  
H128     H      0.283260000000     0.484680000000     0.658710000000     0.0456078  
H129     H      0.534230000000     0.239590000000     0.149800000000     0.0453445  
H130     H      0.933390000000     0.195740000000     0.149020000000     0.0453827  
H131     H      0.907700000000     0.251630000000     0.149670000000     0.0453529  
H132     H      0.008530000000     0.295480000000     0.150300000000     0.0451949  
H133     H      0.008590000000     0.445400000000     0.140680000000     0.0451679  
H134     H      0.907730000000     0.990190000000     0.140540000000     0.0454203  
H135     H      0.933380000000     0.045840000000     0.139980000000     0.0453704  
H136     H      0.534250000000     0.501050000000     0.139920000000     0.0453854  
H137     H      0.550410000000     0.136740000000     0.971620000000     0.0447634  
H138     H      0.627860000000     0.068190000000     0.007050000000     0.0439829  
H139     H      0.613040000000     0.082470000000     0.064220000000     0.0449697  
H140     H      0.534450000000     0.149770000000     0.028760000000     0.044016   
H141     H      0.892620000000     0.354720000000     0.973410000000     0.0448357  
H142     H      0.815880000000     0.424360000000     0.008190000000     0.0439861  
H143     H      0.829900000000     0.409760000000     0.065500000000     0.0449394  
H144     H      0.907780000000     0.341360000000     0.030670000000     0.0441398  
H145     H      0.724870000000     0.433870000000     0.887880000000     0.0455228  
H146     H      0.775300000000     0.029640000000     0.888250000000     0.0459766  
H147     H      0.719460000000     0.057710000000     0.887960000000     0.0455202  
H148     H      0.669030000000     0.461940000000     0.887620000000     0.0459452  
H149     H      0.918710000000     0.029620000000     0.894400000000     0.0459117  
H150     H      0.970110000000     0.433850000000     0.895120000000     0.0453984  
H151     H      0.525660000000     0.461930000000     0.894690000000     0.0459196  
H152     H      0.974260000000     0.057690000000     0.894110000000     0.0454759  
H153     H      0.551120000000     0.103320000000     0.315940000000     0.0447752  
H154     H      0.628770000000     0.170780000000     0.280280000000     0.0443246  
H155     H      0.613920000000     0.156490000000     0.223170000000     0.0450511  
H156     H      0.535170000000     0.090260000000     0.258820000000     0.0441245  
H157     H      0.890430000000     0.386950000000     0.317880000000     0.0447216  
H158     H      0.812280000000     0.320470000000     0.281470000000     0.0443544  
H159     H      0.827550000000     0.334920000000     0.224520000000     0.045015   
H160     H      0.906820000000     0.400170000000     0.260910000000     0.0439951  
H161     H      0.773590000000     0.210810000000     0.398240000000     0.0463456  
H162     H      0.722670000000     0.306860000000     0.397540000000     0.0452616  
H163     H      0.667040000000     0.279080000000     0.397090000000     0.0454048  
H164     H      0.717930000000     0.183030000000     0.398080000000     0.0463047  
H165     H      0.917370000000     0.210940000000     0.388810000000     0.0462038  
H166     H      0.967300000000     0.306980000000     0.390180000000     0.0453093  
H167     H      0.523240000000     0.279200000000     0.389750000000     0.0458718  
H168     H      0.973320000000     0.183160000000     0.388500000000     0.0453188  
H169     H      0.654040000000     0.090280000000     0.531440000000     0.0432644  
H170     H      0.590240000000     0.170910000000     0.567300000000     0.0450077  
H171     H      0.572580000000     0.183410000000     0.510590000000     0.0431326  
H172     H      0.635660000000     0.102230000000     0.474760000000     0.0441348  
H173     H      0.660630000000     0.155000000000     0.759720000000     0.0439824  
H174     H      0.583450000000     0.088820000000     0.720880000000     0.0451493  
H175     H      0.567260000000     0.073210000000     0.777200000000     0.0440805  
H176     H      0.643300000000     0.140520000000     0.816210000000     0.0448429  
H177     H      0.786370000000     0.398230000000     0.533890000000     0.0441965  
H178     H      0.850870000000     0.317680000000     0.568800000000     0.0451777  
H179     H      0.868030000000     0.305530000000     0.511860000000     0.0446591  
H180     H      0.804300000000     0.386660000000     0.476960000000     0.0443837  
H181     H      0.801790000000     0.349540000000     0.818710000000     0.0449752  
H182     H      0.876530000000     0.417430000000     0.778380000000     0.0441238  
H183     H      0.860010000000     0.401050000000     0.722350000000     0.0455124  
H184     H      0.784140000000     0.334260000000     0.762530000000     0.0438948  
H185     H      0.646660000000     0.230270000000     0.470080000000     0.0332131  
H186     H      0.715490000000     0.149310000000     0.490260000000     0.0381448  
H187     H      0.710990000000     0.161280000000     0.551350000000     0.0334621  
H188     H      0.642140000000     0.242200000000     0.531120000000     0.0395134  
H189     H      0.760810000000     0.041830000000     0.657990000000     0.0470047  
H190     H      0.658240000000     0.503690000000     0.645990000000     0.0459694  
H191     H      0.680670000000     0.446560000000     0.646730000000     0.0474581  
H192     H      0.783260000000     0.984670000000     0.658730000000     0.0456182  
H193     H      0.534230000000     0.739590000000     0.149800000000     0.045346   
H194     H      0.933390000000     0.695740000000     0.149020000000     0.0453941  
H195     H      0.907700000000     0.751640000000     0.149670000000     0.0453395  
H196     H      0.008530000000     0.795490000000     0.150300000000     0.045189   
H197     H      0.008590000000     0.945400000000     0.140680000000     0.0451626  
H198     H      0.907730000000     0.490190000000     0.140540000000     0.0454341  
H199     H      0.933380000000     0.545840000000     0.139980000000     0.0453392  
H200     H      0.534250000000     0.001050000000     0.139920000000     0.0453942  
H201     H      0.550400000000     0.636740000000     0.971620000000     0.0447517  
H202     H      0.627860000000     0.568190000000     0.007050000000     0.0439862  
H203     H      0.613040000000     0.582480000000     0.064220000000     0.0449578  
H204     H      0.534450000000     0.649770000000     0.028760000000     0.0440247  
H205     H      0.892620000000     0.854720000000     0.973410000000     0.0448344  
H206     H      0.815880000000     0.924360000000     0.008190000000     0.0439765  
H207     H      0.829900000000     0.909760000000     0.065500000000     0.0449686  
H208     H      0.907780000000     0.841360000000     0.030670000000     0.0441462  
H209     H      0.724870000000     0.933870000000     0.887880000000     0.045507   
H210     H      0.775290000000     0.529640000000     0.888250000000     0.045957   
H211     H      0.719460000000     0.557710000000     0.887960000000     0.0455203  
H212     H      0.669030000000     0.961940000000     0.887620000000     0.0459539  
H213     H      0.918710000000     0.529620000000     0.894400000000     0.0459053  
H214     H      0.970110000000     0.933850000000     0.895120000000     0.0453999  
H215     H      0.525660000000     0.961930000000     0.894690000000     0.0459229  
H216     H      0.974260000000     0.557690000000     0.894110000000     0.045502   
H217     H      0.551120000000     0.603320000000     0.315940000000     0.0447788  
H218     H      0.628770000000     0.670780000000     0.280280000000     0.0443414  
H219     H      0.613920000000     0.656490000000     0.223170000000     0.0450447  
H220     H      0.535170000000     0.590250000000     0.258820000000     0.0441162  
H221     H      0.890430000000     0.886950000000     0.317880000000     0.044714   
H222     H      0.812280000000     0.820460000000     0.281470000000     0.0443422  
H223     H      0.827550000000     0.834920000000     0.224520000000     0.0450186  
H224     H      0.906820000000     0.900170000000     0.260910000000     0.0439967  
H225     H      0.773590000000     0.710810000000     0.398240000000     0.0463409  
H226     H      0.722670000000     0.806860000000     0.397540000000     0.0452713  
H227     H      0.667040000000     0.779080000000     0.397090000000     0.0454022  
H228     H      0.717930000000     0.683030000000     0.398080000000     0.0463083  
H229     H      0.917380000000     0.710940000000     0.388810000000     0.0462097  
H230     H      0.967300000000     0.806980000000     0.390180000000     0.0453009  
H231     H      0.523240000000     0.779200000000     0.389750000000     0.045875   
H232     H      0.973320000000     0.683160000000     0.388500000000     0.0453189  
H233     H      0.654040000000     0.590280000000     0.531440000000     0.0432521  
H234     H      0.590240000000     0.670910000000     0.567300000000     0.045008   
H235     H      0.572580000000     0.683410000000     0.510590000000     0.0431336  
H236     H      0.635660000000     0.602230000000     0.474760000000     0.0441412  
H237     H      0.660630000000     0.655000000000     0.759720000000     0.0439772  
H238     H      0.583450000000     0.588820000000     0.720880000000     0.0451491  
H239     H      0.567260000000     0.573210000000     0.777200000000     0.044073   
H240     H      0.643300000000     0.640520000000     0.816210000000     0.0448495  
H241     H      0.786370000000     0.898240000000     0.533890000000     0.0441883  
H242     H      0.850870000000     0.817680000000     0.568800000000     0.045177   
H243     H      0.868030000000     0.805530000000     0.511860000000     0.0446644  
H244     H      0.804300000000     0.886660000000     0.476960000000     0.044392   
H245     H      0.801790000000     0.849540000000     0.818710000000     0.0449615  
H246     H      0.876530000000     0.917430000000     0.778380000000     0.0441199  
H247     H      0.860020000000     0.901050000000     0.722350000000     0.0455017  
H248     H      0.784140000000     0.834260000000     0.762530000000     0.0439067  
H249     H      0.646660000000     0.730270000000     0.470080000000     0.0332023  
H250     H      0.715490000000     0.649310000000     0.490260000000     0.0381424  
H251     H      0.710990000000     0.661280000000     0.551350000000     0.0334582  
H252     H      0.642140000000     0.742200000000     0.531120000000     0.0395328  
H253     H      0.760810000000     0.541830000000     0.657990000000     0.0470073  
H254     H      0.658240000000     0.003690000000     0.645990000000     0.0459673  
H255     H      0.680670000000     0.946560000000     0.646730000000     0.0474583  
H256     H      0.783260000000     0.484670000000     0.658730000000     0.0456185  
In1      In     0.272550000000     0.366090000000     0.647640000000     2.41075    
In2      In     0.170030000000     0.122560000000     0.644710000000     2.41523    
In3      In     0.344950000000     0.308430000000     0.395530000000     2.4366     
In4      In     0.095670000000     0.181630000000     0.394310000000     2.43978    
In5      In     0.347380000000     0.431330000000     0.893210000000     2.41538    
In6      In     0.096920000000     0.060280000000     0.892000000000     2.41497    
In7      In     0.030550000000     0.120320000000     0.143910000000     2.42876    
In8      In     0.411420000000     0.370970000000     0.145690000000     2.42872    
In9      In     0.272550000000     0.866090000000     0.647640000000     2.41083    
In10     In     0.170030000000     0.622560000000     0.644710000000     2.41544    
In11     In     0.344950000000     0.808430000000     0.395530000000     2.43675    
In12     In     0.095670000000     0.681630000000     0.394310000000     2.43978    
In13     In     0.347380000000     0.931330000000     0.893210000000     2.41557    
In14     In     0.096920000000     0.560280000000     0.892000000000     2.41497    
In15     In     0.030550000000     0.620320000000     0.143910000000     2.42876    
In16     In     0.411420000000     0.870970000000     0.145690000000     2.42878    
In17     In     0.772550000000     0.366080000000     0.647640000000     2.41048    
In18     In     0.670030000000     0.122550000000     0.644710000000     2.41519    
In19     In     0.844950000000     0.308430000000     0.395530000000     2.43671    
In20     In     0.595660000000     0.181630000000     0.394310000000     2.44002    
In21     In     0.847380000000     0.431330000000     0.893210000000     2.41577    
In22     In     0.596920000000     0.060270000000     0.892000000000     2.41548    
In23     In     0.530550000000     0.120330000000     0.143910000000     2.42896    
In24     In     0.911420000000     0.370970000000     0.145700000000     2.42903    
In25     In     0.772550000000     0.866080000000     0.647640000000     2.4105     
In26     In     0.670040000000     0.622550000000     0.644710000000     2.41539    
In27     In     0.844950000000     0.808420000000     0.395530000000     2.43653    
In28     In     0.595660000000     0.681630000000     0.394310000000     2.44002    
In29     In     0.847380000000     0.931330000000     0.893210000000     2.41585    
In30     In     0.596920000000     0.560270000000     0.892000000000     2.41517    
In31     In     0.530550000000     0.620330000000     0.143910000000     2.4289     
In32     In     0.911420000000     0.870970000000     0.145700000000     2.42904    
N1       N      0.485720000000     0.213410000000     0.149150000000    -0.174375   
N2       N      0.456200000000     0.277820000000     0.149810000000    -0.174318   
N3       N      0.456260000000     0.463570000000     0.140860000000    -0.174333   
N4       N      0.485720000000     0.027680000000     0.140090000000    -0.174412   
N5       N      0.089470000000     0.100640000000     0.985170000000    -0.177098   
N6       N      0.071860000000     0.116260000000     0.050680000000    -0.176381   
N7       N      0.353980000000     0.391380000000     0.986630000000    -0.177078   
N8       N      0.370660000000     0.375380000000     0.052270000000    -0.17636    
N9       N      0.254300000000     0.479670000000     0.888300000000    -0.174093   
N10      N      0.190020000000     0.011920000000     0.887990000000    -0.174055   
N11      N      0.440200000000     0.479630000000     0.894690000000    -0.174142   
N12      N      0.504180000000     0.011910000000     0.894270000000    -0.174078   
N13      N      0.090210000000     0.138960000000     0.302260000000    -0.176624   
N14      N      0.072590000000     0.123340000000     0.236830000000    -0.176359   
N15      N      0.351040000000     0.351790000000     0.303820000000    -0.176641   
N16      N      0.369160000000     0.367590000000     0.238540000000    -0.176382   
N17      N      0.252300000000     0.260890000000     0.397670000000    -0.174045   
N18      N      0.188340000000     0.229010000000     0.397280000000    -0.173947   
N19      N      0.438150000000     0.261020000000     0.389800000000    -0.174347   
N20      N      0.502470000000     0.229130000000     0.389370000000    -0.174526   
N21      N      0.124320000000     0.130420000000     0.553430000000    -0.176644   
N22      N      0.103650000000     0.144360000000     0.488410000000    -0.176626   
N23      N      0.124140000000     0.122060000000     0.736170000000    -0.177511   
N24      N      0.104960000000     0.104820000000     0.800810000000    -0.176946   
N25      N      0.316480000000     0.358120000000     0.555430000000    -0.177242   
N26      N      0.336620000000     0.344580000000     0.490110000000    -0.176979   
N27      N      0.339460000000     0.385610000000     0.802610000000    -0.176907   
N28      N      0.319910000000     0.367480000000     0.738330000000    -0.177312   
N29      N      0.181370000000     0.189280000000     0.477240000000    -0.107041   
N30      N      0.176440000000     0.202390000000     0.544150000000    -0.105076   
N31      N      0.207910000000     0.027030000000     0.651630000000    -0.174461   
N32      N      0.233660000000     0.461380000000     0.652480000000    -0.174281   
N33      N      0.485720000000     0.713410000000     0.149150000000    -0.174369   
N34      N      0.456200000000     0.777820000000     0.149810000000    -0.174361   
N35      N      0.456260000000     0.963570000000     0.140860000000    -0.174371   
N36      N      0.485720000000     0.527680000000     0.140090000000    -0.174437   
N37      N      0.089470000000     0.600640000000     0.985170000000    -0.177098   
N38      N      0.071860000000     0.616260000000     0.050680000000    -0.176381   
N39      N      0.353980000000     0.891380000000     0.986630000000    -0.177081   
N40      N      0.370660000000     0.875380000000     0.052270000000    -0.176311   
N41      N      0.254300000000     0.979670000000     0.888300000000    -0.174151   
N42      N      0.190020000000     0.511920000000     0.887990000000    -0.174061   
N43      N      0.440200000000     0.979630000000     0.894690000000    -0.174147   
N44      N      0.504180000000     0.511910000000     0.894270000000    -0.174117   
N45      N      0.090210000000     0.638960000000     0.302260000000    -0.176624   
N46      N      0.072590000000     0.623340000000     0.236830000000    -0.176359   
N47      N      0.351040000000     0.851790000000     0.303820000000    -0.176638   
N48      N      0.369160000000     0.867590000000     0.238540000000    -0.176406   
N49      N      0.252300000000     0.760890000000     0.397670000000    -0.173985   
N50      N      0.188340000000     0.729010000000     0.397280000000    -0.173957   
N51      N      0.438140000000     0.761020000000     0.389800000000    -0.174393   
N52      N      0.502470000000     0.729130000000     0.389370000000    -0.174521   
N53      N      0.124320000000     0.630430000000     0.553430000000    -0.176617   
N54      N      0.103650000000     0.644360000000     0.488410000000    -0.176633   
N55      N      0.124140000000     0.622060000000     0.736170000000    -0.177512   
N56      N      0.104960000000     0.604830000000     0.800810000000    -0.176919   
N57      N      0.316480000000     0.858120000000     0.555430000000    -0.177228   
N58      N      0.336620000000     0.844580000000     0.490110000000    -0.176984   
N59      N      0.339460000000     0.885610000000     0.802610000000    -0.176942   
N60      N      0.319910000000     0.867480000000     0.738330000000    -0.177306   
N61      N      0.181370000000     0.689280000000     0.477240000000    -0.107046   
N62      N      0.176440000000     0.702390000000     0.544150000000    -0.105054   
N63      N      0.207910000000     0.527030000000     0.651630000000    -0.17447    
N64      N      0.233660000000     0.961380000000     0.652480000000    -0.174349   
N65      N      0.985720000000     0.213410000000     0.149160000000    -0.174182   
N66      N      0.956200000000     0.277820000000     0.149820000000    -0.174344   
N67      N      0.956260000000     0.463570000000     0.140870000000    -0.174364   
N68      N      0.985720000000     0.027680000000     0.140090000000    -0.174216   
N69      N      0.589470000000     0.100640000000     0.985170000000    -0.177078   
N70      N      0.571860000000     0.116260000000     0.050670000000    -0.176384   
N71      N      0.853980000000     0.391380000000     0.986630000000    -0.177076   
N72      N      0.870670000000     0.375380000000     0.052270000000    -0.176399   
N73      N      0.754300000000     0.479670000000     0.888310000000    -0.174076   
N74      N      0.690020000000     0.011920000000     0.887990000000    -0.174122   
N75      N      0.940200000000     0.479630000000     0.894700000000    -0.174212   
N76      N      0.004180000000     0.011910000000     0.894280000000    -0.174129   
N77      N      0.590200000000     0.138960000000     0.302260000000    -0.176678   
N78      N      0.572590000000     0.123340000000     0.236830000000    -0.176354   
N79      N      0.851040000000     0.351790000000     0.303820000000    -0.176575   
N80      N      0.869160000000     0.367590000000     0.238550000000    -0.176322   
N81      N      0.752290000000     0.260890000000     0.397670000000    -0.17405    
N82      N      0.688340000000     0.229010000000     0.397280000000    -0.173944   
N83      N      0.938140000000     0.261010000000     0.389810000000    -0.174379   
N84      N      0.002470000000     0.229120000000     0.389370000000    -0.174611   
N85      N      0.624320000000     0.130420000000     0.553420000000    -0.176634   
N86      N      0.603640000000     0.144360000000     0.488400000000    -0.176658   
N87      N      0.624140000000     0.122060000000     0.736160000000    -0.177516   
N88      N      0.604960000000     0.104820000000     0.800810000000    -0.176997   
N89      N      0.816480000000     0.358110000000     0.555430000000    -0.177167   
N90      N      0.836620000000     0.344580000000     0.490110000000    -0.17699    
N91      N      0.839460000000     0.385610000000     0.802610000000    -0.176911   
N92      N      0.819920000000     0.367470000000     0.738340000000    -0.177246   
N93      N      0.681370000000     0.189270000000     0.477240000000    -0.107033   
N94      N      0.676440000000     0.202380000000     0.544150000000    -0.105091   
N95      N      0.707910000000     0.027020000000     0.651630000000    -0.174435   
N96      N      0.733650000000     0.461370000000     0.652480000000    -0.174307   
N97      N      0.985720000000     0.713410000000     0.149160000000    -0.174173   
N98      N      0.956200000000     0.777820000000     0.149820000000    -0.174423   
N99      N      0.956260000000     0.963570000000     0.140860000000    -0.174371   
N100     N      0.985720000000     0.527680000000     0.140090000000    -0.174247   
N101     N      0.589470000000     0.600640000000     0.985170000000    -0.17708    
N102     N      0.571870000000     0.616260000000     0.050670000000    -0.176412   
N103     N      0.853980000000     0.891380000000     0.986630000000    -0.177084   
N104     N      0.870670000000     0.875380000000     0.052270000000    -0.176328   
N105     N      0.754300000000     0.979660000000     0.888310000000    -0.174114   
N106     N      0.690020000000     0.511920000000     0.887990000000    -0.174162   
N107     N      0.940200000000     0.979630000000     0.894700000000    -0.174209   
N108     N      0.004180000000     0.511910000000     0.894280000000    -0.174107   
N109     N      0.590200000000     0.638960000000     0.302260000000    -0.176656   
N110     N      0.572590000000     0.623340000000     0.236830000000    -0.176348   
N111     N      0.851040000000     0.851790000000     0.303820000000    -0.176655   
N112     N      0.869160000000     0.867590000000     0.238550000000    -0.176317   
N113     N      0.752300000000     0.760890000000     0.397670000000    -0.174141   
N114     N      0.688340000000     0.729010000000     0.397280000000    -0.173944   
N115     N      0.938150000000     0.761010000000     0.389810000000    -0.174297   
N116     N      0.002470000000     0.729120000000     0.389370000000    -0.174609   
N117     N      0.624320000000     0.630420000000     0.553420000000    -0.176649   
N118     N      0.603640000000     0.644360000000     0.488400000000    -0.176665   
N119     N      0.624140000000     0.622060000000     0.736160000000    -0.177558   
N120     N      0.604960000000     0.604820000000     0.800810000000    -0.176967   
N121     N      0.816480000000     0.858110000000     0.555430000000    -0.177173   
N122     N      0.836620000000     0.844580000000     0.490110000000    -0.176931   
N123     N      0.839460000000     0.885610000000     0.802610000000    -0.176948   
N124     N      0.819920000000     0.867470000000     0.738340000000    -0.177257   
N125     N      0.681370000000     0.689270000000     0.477240000000    -0.107042   
N126     N      0.676440000000     0.702380000000     0.544150000000    -0.105075   
N127     N      0.707910000000     0.527020000000     0.651630000000    -0.174433   
N128     N      0.733650000000     0.961370000000     0.652480000000    -0.174306   
O1       O      0.278520000000     0.422790000000     0.653560000000    -0.49574    
O2       O      0.227480000000     0.403560000000     0.647760000000    -0.478731   
O3       O      0.277630000000     0.380970000000     0.592870000000    -0.508435   
O4       O      0.319090000000     0.376680000000     0.681340000000    -0.494584   
O5       O      0.218270000000     0.343800000000     0.649750000000    -0.456215   
O6       O      0.276750000000     0.350340000000     0.702490000000    -0.50584    
O7       O      0.313670000000     0.345110000000     0.611740000000    -0.495455   
O8       O      0.260240000000     0.310130000000     0.641840000000    -0.472727   
O9       O      0.224520000000     0.143750000000     0.639230000000    -0.459454   
O10      O      0.182740000000     0.178570000000     0.640520000000    -0.471277   
O11      O      0.166930000000     0.138600000000     0.699600000000    -0.505387   
O12      O      0.163910000000     0.107640000000     0.590150000000    -0.508598   
O13      O      0.214490000000     0.085020000000     0.651770000000    -0.481351   
O14      O      0.128230000000     0.143560000000     0.609640000000    -0.495664   
O15      O      0.124030000000     0.112510000000     0.679240000000    -0.498052   
O16      O      0.163540000000     0.065670000000     0.645640000000    -0.495653   
O17      O      0.403570000000     0.308510000000     0.393060000000    -0.502699   
O18      O      0.378240000000     0.260810000000     0.391350000000    -0.485496   
O19      O      0.330750000000     0.350350000000     0.432770000000    -0.495857   
O20      O      0.330200000000     0.312330000000     0.340710000000    -0.509331   
O21      O      0.312190000000     0.260700000000     0.396120000000    -0.485041   
O22      O      0.360820000000     0.351840000000     0.360920000000    -0.49397    
O23      O      0.356270000000     0.306430000000     0.451100000000    -0.513209   
O24      O      0.286390000000     0.308490000000     0.397270000000    -0.50264    
O25      O      0.037060000000     0.181570000000     0.391470000000    -0.503307   
O26      O      0.062370000000     0.229300000000     0.391060000000    -0.486586   
O27      O      0.109570000000     0.139240000000     0.431050000000    -0.495802   
O28      O      0.080120000000     0.138470000000     0.359290000000    -0.494296   
O29      O      0.128480000000     0.229260000000     0.394930000000    -0.488001   
O30      O      0.110550000000     0.178350000000     0.339500000000    -0.509863   
O31      O      0.084230000000     0.183060000000     0.449840000000    -0.516119   
O32      O      0.154200000000     0.181450000000     0.396710000000    -0.500831   
O33      O      0.288670000000     0.431910000000     0.890270000000    -0.497733   
O34      O      0.314300000000     0.479440000000     0.890310000000    -0.481508   
O35      O      0.363830000000     0.389570000000     0.929640000000    -0.494182   
O36      O      0.360380000000     0.426580000000     0.837930000000    -0.508482   
O37      O      0.380170000000     0.479410000000     0.893680000000    -0.482086   
O38      O      0.331180000000     0.387040000000     0.859860000000    -0.491882   
O39      O      0.333500000000     0.430160000000     0.948530000000    -0.508285   
O40      O      0.406210000000     0.431870000000     0.894700000000    -0.497587   
O41      O      0.155650000000     0.059680000000     0.889680000000    -0.497755   
O42      O      0.130000000000     0.012160000000     0.889360000000    -0.481442   
O43      O      0.080100000000     0.102240000000     0.928080000000    -0.493927   
O44      O      0.113440000000     0.104050000000     0.858060000000    -0.491984   
O45      O      0.064210000000     0.012150000000     0.893090000000    -0.481506   
O46      O      0.083790000000     0.064510000000     0.836710000000    -0.508707   
O47      O      0.110640000000     0.061980000000     0.947330000000    -0.508171   
O48      O      0.038120000000     0.059690000000     0.893460000000    -0.497432   
O49      O      0.032800000000     0.063220000000     0.140960000000    -0.5026     
O50      O      0.482750000000     0.086210000000     0.141760000000    -0.485607   
O51      O      0.075250000000     0.131980000000     0.179670000000    -0.491532   
O52      O      0.074940000000     0.107980000000     0.107880000000    -0.491922   
O53      O      0.482780000000     0.154940000000     0.146460000000    -0.485773   
O54      O      0.030220000000     0.132740000000     0.088500000000    -0.510512   
O55      O      0.030610000000     0.107640000000     0.199220000000    -0.510183   
O56      O      0.032820000000     0.177420000000     0.147480000000    -0.502504   
O57      O      0.409110000000     0.313830000000     0.148530000000    -0.50219    
O58      O      0.459170000000     0.336330000000     0.148250000000    -0.485516   
O59      O      0.367260000000     0.383640000000     0.109460000000    -0.491178   
O60      O      0.366600000000     0.359350000000     0.181310000000    -0.492416   
O61      O      0.459230000000     0.405060000000     0.143370000000    -0.485667   
O62      O      0.411360000000     0.383250000000     0.201130000000    -0.510313   
O63      O      0.411820000000     0.358420000000     0.090350000000    -0.510395   
O64      O      0.409180000000     0.428050000000     0.142500000000    -0.502847   
O65      O      0.278510000000     0.922790000000     0.653560000000    -0.495946   
O66      O      0.227480000000     0.903560000000     0.647760000000    -0.478818   
O67      O      0.277630000000     0.880970000000     0.592870000000    -0.508439   
O68      O      0.319090000000     0.876680000000     0.681340000000    -0.494593   
O69      O      0.218270000000     0.843800000000     0.649750000000    -0.456154   
O70      O      0.276750000000     0.850340000000     0.702490000000    -0.505843   
O71      O      0.313670000000     0.845110000000     0.611740000000    -0.495453   
O72      O      0.260250000000     0.810130000000     0.641840000000    -0.472617   
O73      O      0.224520000000     0.643750000000     0.639230000000    -0.459487   
O74      O      0.182740000000     0.678560000000     0.640520000000    -0.471475   
O75      O      0.166930000000     0.638600000000     0.699600000000    -0.505395   
O76      O      0.163910000000     0.607640000000     0.590150000000    -0.508611   
O77      O      0.214490000000     0.585020000000     0.651770000000    -0.481373   
O78      O      0.128230000000     0.643560000000     0.609640000000    -0.495663   
O79      O      0.124030000000     0.612510000000     0.679240000000    -0.49807    
O80      O      0.163540000000     0.565670000000     0.645640000000    -0.495676   
O81      O      0.403570000000     0.808510000000     0.393060000000    -0.502681   
O82      O      0.378230000000     0.760810000000     0.391350000000    -0.485447   
O83      O      0.330750000000     0.850350000000     0.432770000000    -0.495875   
O84      O      0.330200000000     0.812330000000     0.340710000000    -0.50934    
O85      O      0.312200000000     0.760700000000     0.396120000000    -0.484967   
O86      O      0.360820000000     0.851840000000     0.360920000000    -0.493987   
O87      O      0.356270000000     0.806430000000     0.451100000000    -0.513216   
O88      O      0.286390000000     0.808490000000     0.397270000000    -0.50259    
O89      O      0.037060000000     0.681570000000     0.391470000000    -0.503307   
O90      O      0.062370000000     0.729300000000     0.391060000000    -0.486586   
O91      O      0.109570000000     0.639240000000     0.431050000000    -0.495802   
O92      O      0.080120000000     0.638470000000     0.359290000000    -0.494296   
O93      O      0.128480000000     0.729260000000     0.394930000000    -0.488002   
O94      O      0.110550000000     0.678350000000     0.339500000000    -0.509863   
O95      O      0.084230000000     0.683060000000     0.449840000000    -0.516119   
O96      O      0.154200000000     0.681450000000     0.396710000000    -0.500831   
O97      O      0.288670000000     0.931910000000     0.890270000000    -0.497799   
O98      O      0.314300000000     0.979430000000     0.890310000000    -0.481755   
O99      O      0.363830000000     0.889570000000     0.929640000000    -0.494197   
O100     O      0.360380000000     0.926580000000     0.837930000000    -0.508447   
O101     O      0.380170000000     0.979410000000     0.893680000000    -0.482092   
O102     O      0.331180000000     0.887040000000     0.859860000000    -0.491942   
O103     O      0.333500000000     0.930160000000     0.948530000000    -0.508295   
O104     O      0.406210000000     0.931870000000     0.894700000000    -0.4976     
O105     O      0.155650000000     0.559680000000     0.889680000000    -0.497756   
O106     O      0.130000000000     0.512160000000     0.889360000000    -0.481443   
O107     O      0.080100000000     0.602240000000     0.928080000000    -0.493926   
O108     O      0.113440000000     0.604050000000     0.858060000000    -0.49197    
O109     O      0.064210000000     0.512150000000     0.893090000000    -0.481505   
O110     O      0.083790000000     0.564510000000     0.836710000000    -0.508699   
O111     O      0.110640000000     0.561980000000     0.947330000000    -0.508171   
O112     O      0.038120000000     0.559690000000     0.893460000000    -0.497429   
O113     O      0.032800000000     0.563220000000     0.140960000000    -0.502601   
O114     O      0.482750000000     0.586210000000     0.141760000000    -0.485651   
O115     O      0.075250000000     0.631980000000     0.179670000000    -0.491533   
O116     O      0.074940000000     0.607980000000     0.107880000000    -0.491922   
O117     O      0.482780000000     0.654940000000     0.146460000000    -0.485764   
O118     O      0.030220000000     0.632740000000     0.088500000000    -0.510512   
O119     O      0.030610000000     0.607640000000     0.199220000000    -0.510184   
O120     O      0.032820000000     0.677420000000     0.147480000000    -0.502503   
O121     O      0.409110000000     0.813830000000     0.148530000000    -0.50235    
O122     O      0.459160000000     0.836330000000     0.148250000000    -0.485693   
O123     O      0.367250000000     0.883640000000     0.109460000000    -0.490985   
O124     O      0.366600000000     0.859350000000     0.181310000000    -0.492425   
O125     O      0.459230000000     0.905060000000     0.143370000000    -0.48574    
O126     O      0.411360000000     0.883250000000     0.201130000000    -0.510313   
O127     O      0.411820000000     0.858420000000     0.090350000000    -0.510349   
O128     O      0.409190000000     0.928050000000     0.142500000000    -0.503056   
O129     O      0.778510000000     0.422780000000     0.653580000000    -0.495849   
O130     O      0.727480000000     0.403550000000     0.647760000000    -0.478766   
O131     O      0.777630000000     0.380970000000     0.592870000000    -0.50823    
O132     O      0.819090000000     0.376670000000     0.681350000000    -0.49455    
O133     O      0.718270000000     0.343790000000     0.649770000000    -0.456152   
O134     O      0.776750000000     0.350330000000     0.702500000000    -0.505663   
O135     O      0.813670000000     0.345100000000     0.611750000000    -0.495358   
O136     O      0.760240000000     0.310120000000     0.641850000000    -0.47272    
O137     O      0.724520000000     0.143740000000     0.639220000000    -0.459504   
O138     O      0.682750000000     0.178560000000     0.640520000000    -0.471279   
O139     O      0.666930000000     0.138590000000     0.699600000000    -0.505446   
O140     O      0.663910000000     0.107630000000     0.590150000000    -0.508445   
O141     O      0.714490000000     0.085010000000     0.651780000000    -0.481303   
O142     O      0.628230000000     0.143550000000     0.609640000000    -0.495587   
O143     O      0.624030000000     0.112500000000     0.679240000000    -0.498182   
O144     O      0.663540000000     0.065660000000     0.645620000000    -0.495582   
O145     O      0.903570000000     0.308500000000     0.393060000000    -0.502853   
O146     O      0.878230000000     0.260810000000     0.391360000000    -0.485496   
O147     O      0.830750000000     0.350350000000     0.432780000000    -0.495887   
O148     O      0.830200000000     0.312320000000     0.340720000000    -0.509415   
O149     O      0.812200000000     0.260700000000     0.396120000000    -0.485046   
O150     O      0.860820000000     0.351840000000     0.360920000000    -0.493889   
O151     O      0.856270000000     0.306430000000     0.451110000000    -0.51322    
O152     O      0.786390000000     0.308480000000     0.397270000000    -0.502642   
O153     O      0.537060000000     0.181570000000     0.391470000000    -0.503431   
O154     O      0.562370000000     0.229300000000     0.391060000000    -0.486662   
O155     O      0.609570000000     0.139240000000     0.431050000000    -0.495779   
O156     O      0.580120000000     0.138480000000     0.359290000000    -0.494544   
O157     O      0.628480000000     0.229260000000     0.394930000000    -0.487934   
O158     O      0.610540000000     0.178350000000     0.339500000000    -0.510111   
O159     O      0.584230000000     0.183060000000     0.449840000000    -0.51625    
O160     O      0.654200000000     0.181450000000     0.396710000000    -0.500697   
O161     O      0.788670000000     0.431910000000     0.890280000000    -0.497928   
O162     O      0.814300000000     0.479430000000     0.890310000000    -0.481717   
O163     O      0.863830000000     0.389570000000     0.929640000000    -0.494244   
O164     O      0.860380000000     0.426570000000     0.837930000000    -0.508671   
O165     O      0.880170000000     0.479400000000     0.893680000000    -0.482331   
O166     O      0.831180000000     0.387040000000     0.859860000000    -0.492083   
O167     O      0.833500000000     0.430160000000     0.948530000000    -0.508204   
O168     O      0.906210000000     0.431870000000     0.894700000000    -0.49765    
O169     O      0.655650000000     0.059680000000     0.889680000000    -0.497663   
O170     O      0.630000000000     0.012160000000     0.889360000000    -0.481647   
O171     O      0.580100000000     0.102240000000     0.928070000000    -0.493798   
O172     O      0.613440000000     0.104040000000     0.858060000000    -0.491953   
O173     O      0.564210000000     0.012150000000     0.893080000000    -0.481659   
O174     O      0.583790000000     0.064510000000     0.836710000000    -0.508822   
O175     O      0.610640000000     0.061980000000     0.947320000000    -0.508299   
O176     O      0.538120000000     0.059690000000     0.893450000000    -0.497425   
O177     O      0.532800000000     0.063220000000     0.140960000000    -0.502628   
O178     O      0.982750000000     0.086210000000     0.141770000000    -0.485532   
O179     O      0.575240000000     0.131980000000     0.179660000000    -0.491791   
O180     O      0.574940000000     0.107980000000     0.107870000000    -0.491807   
O181     O      0.982780000000     0.154940000000     0.146470000000    -0.485478   
O182     O      0.530220000000     0.132740000000     0.088490000000    -0.510374   
O183     O      0.530610000000     0.107640000000     0.199220000000    -0.510095   
O184     O      0.532820000000     0.177420000000     0.147470000000    -0.502734   
O185     O      0.909110000000     0.313830000000     0.148530000000    -0.502316   
O186     O      0.959170000000     0.336330000000     0.148250000000    -0.485467   
O187     O      0.867260000000     0.383640000000     0.109470000000    -0.491076   
O188     O      0.866600000000     0.359350000000     0.181310000000    -0.492489   
O189     O      0.959230000000     0.405060000000     0.143380000000    -0.485661   
O190     O      0.911360000000     0.383250000000     0.201130000000    -0.510458   
O191     O      0.911820000000     0.358420000000     0.090360000000    -0.510342   
O192     O      0.909180000000     0.428050000000     0.142500000000    -0.502858   
O193     O      0.778510000000     0.922780000000     0.653580000000    -0.495848   
O194     O      0.727480000000     0.903550000000     0.647760000000    -0.478771   
O195     O      0.777630000000     0.880970000000     0.592870000000    -0.508232   
O196     O      0.819090000000     0.876670000000     0.681350000000    -0.494584   
O197     O      0.718270000000     0.843790000000     0.649770000000    -0.456092   
O198     O      0.776750000000     0.850330000000     0.702500000000    -0.505562   
O199     O      0.813670000000     0.845100000000     0.611750000000    -0.495352   
O200     O      0.760250000000     0.810120000000     0.641850000000    -0.472606   
O201     O      0.724520000000     0.643740000000     0.639220000000    -0.459662   
O202     O      0.682750000000     0.678560000000     0.640520000000    -0.471322   
O203     O      0.666930000000     0.638590000000     0.699600000000    -0.5055     
O204     O      0.663910000000     0.607630000000     0.590150000000    -0.508457   
O205     O      0.714490000000     0.585010000000     0.651780000000    -0.481429   
O206     O      0.628230000000     0.643550000000     0.609640000000    -0.495492   
O207     O      0.624040000000     0.612500000000     0.679240000000    -0.49828    
O208     O      0.663540000000     0.565660000000     0.645620000000    -0.49556    
O209     O      0.903570000000     0.808510000000     0.393060000000    -0.502679   
O210     O      0.878240000000     0.760810000000     0.391360000000    -0.48559    
O211     O      0.830750000000     0.850350000000     0.432780000000    -0.495675   
O212     O      0.830200000000     0.812330000000     0.340720000000    -0.509457   
O213     O      0.812190000000     0.760700000000     0.396120000000    -0.485275   
O214     O      0.860820000000     0.851840000000     0.360920000000    -0.493848   
O215     O      0.856270000000     0.806420000000     0.451110000000    -0.51305    
O216     O      0.786390000000     0.808480000000     0.397270000000    -0.502703   
O217     O      0.537060000000     0.681570000000     0.391470000000    -0.503426   
O218     O      0.562370000000     0.729300000000     0.391060000000    -0.486662   
O219     O      0.609570000000     0.639240000000     0.431050000000    -0.495813   
O220     O      0.580120000000     0.638480000000     0.359290000000    -0.494539   
O221     O      0.628480000000     0.729260000000     0.394930000000    -0.487936   
O222     O      0.610540000000     0.678350000000     0.339500000000    -0.510107   
O223     O      0.584230000000     0.683060000000     0.449840000000    -0.516205   
O224     O      0.654200000000     0.681450000000     0.396710000000    -0.5007     
O225     O      0.788670000000     0.931910000000     0.890280000000    -0.497947   
O226     O      0.814300000000     0.979430000000     0.890310000000    -0.48174    
O227     O      0.863830000000     0.889570000000     0.929640000000    -0.494241   
O228     O      0.860380000000     0.926570000000     0.837930000000    -0.508716   
O229     O      0.880170000000     0.979400000000     0.893680000000    -0.48234    
O230     O      0.831190000000     0.887040000000     0.859860000000    -0.492212   
O231     O      0.833500000000     0.930160000000     0.948530000000    -0.508205   
O232     O      0.906210000000     0.931870000000     0.894700000000    -0.497652   
O233     O      0.655650000000     0.559680000000     0.889680000000    -0.497715   
O234     O      0.630010000000     0.512160000000     0.889360000000    -0.48171    
O235     O      0.580100000000     0.602240000000     0.928070000000    -0.493768   
O236     O      0.613440000000     0.604050000000     0.858060000000    -0.491727   
O237     O      0.564200000000     0.512150000000     0.893080000000    -0.481718   
O238     O      0.583790000000     0.564510000000     0.836710000000    -0.508764   
O239     O      0.610640000000     0.561980000000     0.947320000000    -0.508275   
O240     O      0.538120000000     0.559690000000     0.893450000000    -0.497458   
O241     O      0.532800000000     0.563220000000     0.140960000000    -0.502527   
O242     O      0.982750000000     0.586210000000     0.141770000000    -0.485536   
O243     O      0.575250000000     0.631980000000     0.179660000000    -0.491615   
O244     O      0.574940000000     0.607980000000     0.107870000000    -0.491868   
O245     O      0.982780000000     0.654940000000     0.146470000000    -0.485478   
O246     O      0.530230000000     0.632740000000     0.088490000000    -0.510526   
O247     O      0.530610000000     0.607650000000     0.199220000000    -0.510164   
O248     O      0.532820000000     0.677420000000     0.147470000000    -0.502734   
O249     O      0.909110000000     0.813830000000     0.148530000000    -0.502369   
O250     O      0.959160000000     0.836330000000     0.148250000000    -0.485694   
O251     O      0.867250000000     0.883640000000     0.109470000000    -0.490875   
O252     O      0.866600000000     0.859350000000     0.181310000000    -0.492492   
O253     O      0.959230000000     0.905060000000     0.143380000000    -0.485647   
O254     O      0.911360000000     0.883250000000     0.201130000000    -0.510446   
O255     O      0.911820000000     0.858420000000     0.090360000000    -0.510297   
O256     O      0.909180000000     0.928050000000     0.142500000000    -0.502873   


