data_structure

_audit_creation_method RASPA-1.0
_audit_creation_date 2023-5-23
_audit_author_name 'Poobodin Mano'

_cell_length_a    47.3247
_cell_length_b    47.8566
_cell_length_c    27.9492
_cell_angle_alpha 90.0148
_cell_angle_beta  89.9859
_cell_angle_gamma 120.343
_cell_volume      54628.4

_symmetry_cell_setting          triclinic
_symmetry_space_group_name_Hall 'P 1'
_symmetry_space_group_name_H-M  'P 1'
_symmetry_Int_Tables_number     1

_symmetry_equiv_pos_as_xyz 'x,y,z'

loop_
_atom_site_label
_atom_site_type_symbol
_atom_site_fract_x
_atom_site_fract_y
_atom_site_fract_z
_atom_site_charge
C1       C      0.398350000000     0.522790000000     0.161180000000     0.416939   
C2       C      0.476660000000     0.530490000000     0.065390000000     0.407548   
C3       C      0.397920000000     0.544430000000     0.010630000000     0.411725   
C4       C      0.477340000000     0.617460000000     0.111220000000     0.415733   
C5       C      0.634470000000     0.488310000000     0.924630000000     0.417143   
C6       C      0.555860000000     0.480590000000     0.020000000000     0.407737   
C7       C      0.554960000000     0.393650000000     0.973920000000     0.415889   
C8       C      0.634280000000     0.466340000000     0.075120000000     0.411865   
C9       C      0.964610000000     0.806240000000     0.074100000000     0.414463   
C10      C      0.886280000000     0.736720000000     0.176530000000     0.406564   
C11      C      0.964510000000     0.831950000000     0.220310000000     0.410366   
C12      C      0.882550000000     0.819070000000     0.118290000000     0.417554   
C13      C      0.738390000000     0.532260000000     0.358790000000     0.4082     
C14      C      0.812160000000     0.611950000000     0.245200000000     0.409072   
C15      C      0.822350000000     0.537470000000     0.310980000000     0.410993   
C16      C      0.729320000000     0.518700000000     0.214350000000     0.407039   
C17      C      0.295370000000     0.811860000000     0.221680000000     0.409249   
C18      C      0.219530000000     0.817330000000     0.331370000000     0.409554   
C19      C      0.211050000000     0.732280000000     0.270740000000     0.410176   
C20      C      0.302900000000     0.808210000000     0.366600000000     0.405715   
C21      C      0.068880000000     0.864790000000     0.507360000000     0.407688   
C22      C      0.142530000000     0.865860000000     0.396000000000     0.40966    
C23      C      0.058610000000     0.876710000000     0.360970000000     0.408274   
C24      C      0.145990000000     0.951890000000     0.455890000000     0.414691   
C25      C      0.636970000000     0.142170000000     0.425170000000     0.417098   
C26      C      0.557710000000     0.071020000000     0.520420000000     0.407851   
C27      C      0.636820000000     0.162770000000     0.576710000000     0.411862   
C28      C      0.557620000000     0.157240000000     0.475330000000     0.415296   
C29      C      0.397040000000     0.870620000000     0.659240000000     0.417297   
C30      C      0.476370000000     0.941970000000     0.564080000000     0.407985   
C31      C      0.476180000000     0.855490000000     0.608500000000     0.414761   
C32      C      0.397160000000     0.850510000000     0.507330000000     0.412261   
C33      C      0.963950000000     0.146400000000     0.575140000000     0.407922   
C34      C      0.890470000000     0.146130000000     0.686600000000     0.409606   
C35      C      0.886130000000     0.059810000000     0.626610000000     0.414459   
C36      C      0.973830000000     0.134590000000     0.721600000000     0.408496   
C37      C      0.738920000000     0.201290000000     0.861960000000     0.409265   
C38      C      0.814310000000     0.195460000000     0.751860000000     0.409573   
C39      C      0.731220000000     0.205100000000     0.717190000000     0.406051   
C40      C      0.823370000000     0.280680000000     0.813090000000     0.410228   
C41      C      0.293640000000     0.478700000000     0.727100000000     0.408152   
C42      C      0.219860000000     0.398730000000     0.840130000000     0.409057   
C43      C      0.302690000000     0.491990000000     0.871640000000     0.407042   
C44      C      0.209790000000     0.473580000000     0.775220000000     0.410963   
C45      C      0.067390000000     0.204200000000     0.009430000000     0.414251   
C46      C      0.145610000000     0.273640000000     0.907470000000     0.406523   
C47      C      0.148950000000     0.190680000000     0.964990000000     0.417979   
C48      C      0.067510000000     0.178590000000     0.862820000000     0.410018   
C49      C      0.865020000000     0.804800000000     0.573150000000     0.415208   
C50      C      0.874020000000     0.734060000000     0.674070000000     0.409037   
C51      C      0.959430000000     0.815980000000     0.618370000000     0.416221   
C52      C      0.888630000000     0.827290000000     0.720620000000     0.411427   
C53      C      0.819950000000     0.529860000000     0.853230000000     0.407794   
C54      C      0.825820000000     0.609270000000     0.739900000000     0.40873    
C55      C      0.814940000000     0.516420000000     0.709360000000     0.407108   
C56      C      0.741400000000     0.535410000000     0.808400000000     0.4106     
C57      C      0.209730000000     0.143850000000     0.077700000000     0.407358   
C58      C      0.286980000000     0.146210000000     0.188520000000     0.409617   
C59      C      0.194510000000     0.138490000000     0.224030000000     0.407307   
C60      C      0.206210000000     0.061360000000     0.128120000000     0.411067   
C61      C      0.495620000000     0.203000000000     0.362910000000     0.408921   
C62      C      0.413760000000     0.195660000000     0.252630000000     0.408757   
C63      C      0.489280000000     0.280770000000     0.315750000000     0.409979   
C64      C      0.506790000000     0.206250000000     0.218210000000     0.406588   
C65      C      0.881160000000     0.488370000000     0.422990000000     0.416975   
C66      C      0.951720000000     0.480390000000     0.518590000000     0.40753    
C67      C      0.857520000000     0.463960000000     0.571670000000     0.411711   
C68      C      0.866380000000     0.393520000000     0.468380000000     0.415876   
C69      C      0.151750000000     0.523270000000     0.662900000000     0.416883   
C70      C      0.081590000000     0.531590000000     0.567150000000     0.407222   
C71      C      0.167360000000     0.618360000000     0.617080000000     0.415925   
C72      C      0.175700000000     0.547490000000     0.514240000000     0.411421   
C73      C      0.167450000000     0.205490000000     0.510870000000     0.415497   
C74      C      0.158910000000     0.276740000000     0.410260000000     0.409331   
C75      C      0.145110000000     0.184100000000     0.362630000000     0.41127    
C76      C      0.073520000000     0.194800000000     0.464440000000     0.415825   
C77      C      0.213440000000     0.481560000000     0.232880000000     0.408048   
C78      C      0.207090000000     0.401820000000     0.345820000000     0.408626   
C79      C      0.291730000000     0.475710000000     0.277930000000     0.410825   
C80      C      0.218180000000     0.494760000000     0.376820000000     0.40703    
C81      C      0.498150000000     0.869310000000     0.157410000000     0.416312   
C82      C      0.492150000000     0.941880000000     0.063220000000     0.407964   
C83      C      0.476800000000     0.849740000000     0.006300000000     0.411922   
C84      C      0.404070000000     0.856860000000     0.108970000000     0.41537    
C85      C      0.535830000000     0.143320000000     0.927050000000     0.416491   
C86      C      0.542300000000     0.071180000000     0.021160000000     0.407478   
C87      C      0.630290000000     0.156260000000     0.974870000000     0.415313   
C88      C      0.557700000000     0.163440000000     0.077820000000     0.412039   
C89      C      0.822190000000     0.866340000000     0.005710000000     0.407003   
C90      C      0.746530000000     0.865150000000     0.894570000000     0.409756   
C91      C      0.828510000000     0.950180000000     0.954610000000     0.411537   
C92      C      0.839500000000     0.873090000000     0.859230000000     0.407583   
C93      C      0.537880000000     0.809390000000     0.720860000000     0.408914   
C94      C      0.619750000000     0.816250000000     0.830790000000     0.408676   
C95      C      0.527150000000     0.806470000000     0.865690000000     0.406409   
C96      C      0.543690000000     0.731310000000     0.768260000000     0.410063   
C97      C      0.153020000000     0.623020000000     0.161570000000     0.416635   
C98      C      0.082410000000     0.544650000000     0.066700000000     0.406047   
C99      C      0.177120000000     0.621950000000     0.013540000000     0.411243   
C100     C      0.168190000000     0.542880000000     0.117880000000     0.41636    
C101     C      0.881550000000     0.389460000000     0.923240000000     0.416573   
C102     C      0.952200000000     0.467870000000     0.018140000000     0.406305   
C103     C      0.865970000000     0.469110000000     0.967950000000     0.416075   
C104     C      0.857940000000     0.390160000000     0.071780000000     0.411404   
C105     C      0.205880000000     0.056410000000     0.575240000000     0.409455   
C106     C      0.287320000000     0.135780000000     0.682730000000     0.40988    
C107     C      0.212690000000     0.141950000000     0.620850000000     0.407889   
C108     C      0.199570000000     0.051300000000     0.722320000000     0.407947   
C109     C      0.494080000000     0.286600000000     0.860350000000     0.40835    
C110     C      0.413680000000     0.213270000000     0.748130000000     0.408605   
C111     C      0.507150000000     0.295950000000     0.715780000000     0.406939   
C112     C      0.489040000000     0.203630000000     0.813330000000     0.410959   
C113     C      0.212700000000     0.725090000000     0.731230000000     0.40859    
C114     C      0.204740000000     0.796830000000     0.844230000000     0.408553   
C115     C      0.218430000000     0.716470000000     0.875220000000     0.406897   
C116     C      0.290740000000     0.809590000000     0.776540000000     0.411434   
C117     C      0.159720000000     0.955570000000     0.011150000000     0.411468   
C118     C      0.156310000000     0.873590000000     0.908340000000     0.410901   
C119     C      0.075610000000     0.868590000000     0.965840000000     0.409358   
C120     C      0.152230000000     0.956560000000     0.862110000000     0.40956    
C121     C      0.535900000000     0.388860000000     0.427050000000     0.416678   
C122     C      0.542040000000     0.467110000000     0.520950000000     0.407116   
C123     C      0.558550000000     0.390560000000     0.576870000000     0.41191    
C124     C      0.630660000000     0.470280000000     0.473790000000     0.415656   
C125     C      0.496140000000     0.622770000000     0.657730000000     0.416151   
C126     C      0.489870000000     0.544490000000     0.563950000000     0.40683    
C127     C      0.401230000000     0.541020000000     0.611910000000     0.416016   
C128     C      0.472750000000     0.620730000000     0.508280000000     0.411748   
C129     C      0.874500000000     0.055140000000     0.073190000000     0.410803   
C130     C      0.876400000000     0.136500000000     0.177750000000     0.410473   
C131     C      0.879190000000     0.052720000000     0.221540000000     0.408896   
C132     C      0.956790000000     0.141810000000     0.118450000000     0.408576   
C133     C      0.821760000000     0.286940000000     0.354040000000     0.408459   
C134     C      0.829300000000     0.214450000000     0.241630000000     0.408534   
C135     C      0.743630000000     0.202600000000     0.308440000000     0.411201   
C136     C      0.816630000000     0.295450000000     0.209920000000     0.406635   
C137     C      0.825760000000     0.954440000000     0.508880000000     0.410161   
C138     C      0.744460000000     0.873840000000     0.403160000000     0.410191   
C139     C      0.831830000000     0.957950000000     0.361320000000     0.408765   
C140     C      0.819210000000     0.868200000000     0.463990000000     0.408039   
C141     C      0.537900000000     0.724570000000     0.224640000000     0.408698   
C142     C      0.618070000000     0.797080000000     0.337510000000     0.408509   
C143     C      0.543500000000     0.807860000000     0.271470000000     0.410996   
C144     C      0.524150000000     0.715090000000     0.369100000000     0.407153   
C145     C      0.707270000000     0.837890000000     0.344970000000     0.0335906  
C146     C      0.687130000000     0.850590000000     0.413890000000     0.033895   
C147     C      0.655140000000     0.831130000000     0.397310000000     0.0323889  
C148     C      0.675280000000     0.818490000000     0.328330000000     0.0326054  
C149     C      0.886980000000     0.016860000000     0.272300000000     0.0317556  
C150     C      0.837980000000     0.018370000000     0.276040000000     0.0325905  
C151     C      0.826040000000     0.994470000000     0.311100000000     0.0326693  
C152     C      0.874630000000     0.992210000000     0.307020000000     0.0316815  
C153     C      0.842930000000     0.159850000000     0.166520000000     0.0337354  
C154     C      0.876700000000     0.173460000000     0.234830000000     0.0336491  
C155     C      0.864800000000     0.193220000000     0.250990000000     0.0325648  
C156     C      0.831120000000     0.179670000000     0.182610000000     0.0323483  
C157     C      0.494960000000     0.638160000000     0.430770000000     0.0320473  
C158     C      0.480660000000     0.670500000000     0.476840000000     0.0326076  
C159     C      0.493960000000     0.694650000000     0.441640000000     0.0321125  
C160     C      0.508490000000     0.662310000000     0.396030000000     0.032259   
C161     C      0.503830000000     0.484300000000     0.505080000000     0.0328474  
C162     C      0.541310000000     0.507770000000     0.568830000000     0.0343134  
C163     C      0.528150000000     0.527370000000     0.579730000000     0.0327956  
C164     C      0.490660000000     0.503900000000     0.515990000000     0.0343239  
C165     C      0.202700000000     0.831530000000     0.903220000000     0.0322339  
C166     C      0.168290000000     0.816970000000     0.835540000000     0.0324328  
C167     C      0.156020000000     0.836370000000     0.851810000000     0.0340294  
C168     C      0.190520000000     0.851040000000     0.919400000000     0.0338819  
C169     C      0.522020000000     0.348480000000     0.688540000000     0.0320772  
C170     C      0.537740000000     0.316770000000     0.643640000000     0.0319326  
C171     C      0.551040000000     0.340990000000     0.608530000000     0.0328366  
C172     C      0.535570000000     0.372690000000     0.653890000000     0.0321535  
C173     C      0.158350000000     0.019450000000     0.780180000000     0.0317115  
C174     C      0.203190000000     0.011620000000     0.767880000000     0.0323643  
C175     C      0.191220000000     0.987700000000     0.802910000000     0.0326993  
C176     C      0.145930000000     0.994840000000     0.814970000000     0.0315589  
C177     C      0.324390000000     0.171420000000     0.741330000000     0.0332801  
C178     C      0.344680000000     0.159390000000     0.671940000000     0.0337304  
C179     C      0.376650000000     0.179050000000     0.688430000000     0.0323416  
C180     C      0.356380000000     0.191050000000     0.757870000000     0.0327636  
C181     C      0.816600000000     0.339220000000     0.102450000000     0.0327005  
C182     C      0.862910000000     0.373270000000     0.149360000000     0.0320647  
C183     C      0.852810000000     0.349010000000     0.183760000000     0.0322928  
C184     C      0.806180000000     0.314990000000     0.137420000000     0.0320682  
C185     C      0.172670000000     0.638490000000     0.935460000000     0.0320326  
C186     C      0.218310000000     0.673040000000     0.983160000000     0.0328644  
C187     C      0.228750000000     0.697220000000     0.948130000000     0.0319519  
C188     C      0.182770000000     0.662700000000     0.900980000000     0.0322779  
C189     C      0.026350000000     0.527020000000     0.080650000000     0.031614   
C190     C      0.041210000000     0.504980000000     0.016460000000     0.0340881  
C191     C      0.008270000000     0.485620000000     0.004050000000     0.0319748  
C192     C      0.993410000000     0.507650000000     0.068240000000     0.0355723  
C193     C      0.505110000000     0.675330000000     0.757930000000     0.0335036  
C194     C      0.553520000000     0.700200000000     0.711820000000     0.033072   
C195     C      0.541450000000     0.672440000000     0.683620000000     0.0337849  
C196     C      0.493030000000     0.647500000000     0.729710000000     0.0333166  
C197     C      0.884370000000     0.026860000000     0.011930000000     0.0325552  
C198     C      0.830130000000     0.013160000000     0.029940000000     0.0321831  
C199     C      0.818390000000     0.986280000000     0.999760000000     0.0335432  
C200     C      0.872660000000     0.000520000000     0.980820000000     0.0347282  
C201     C      0.709200000000     0.861190000000     0.834440000000     0.0326084  
C202     C      0.689170000000     0.833100000000     0.907360000000     0.0329663  
C203     C      0.657100000000     0.820780000000     0.891250000000     0.0323226  
C204     C      0.677110000000     0.848970000000     0.818400000000     0.0328443  
C205     C      0.539540000000     0.170900000000     0.854580000000     0.0332176  
C206     C      0.490710000000     0.147580000000     0.899690000000     0.0335441  
C207     C      0.478810000000     0.163040000000     0.870610000000     0.0332574  
C208     C      0.527650000000     0.186440000000     0.825510000000     0.0336284  
C209     C      0.554360000000     0.848640000000     0.214190000000     0.0331079  
C210     C      0.505420000000     0.825680000000     0.259010000000     0.0336279  
C211     C      0.493910000000     0.841530000000     0.229870000000     0.0331559  
C212     C      0.542830000000     0.864390000000     0.185030000000     0.0336043  
C213     C      0.482990000000     0.807260000000     0.972930000000     0.0327124  
C214     C      0.500930000000     0.855800000000     0.929960000000     0.0321677  
C215     C      0.514160000000     0.845080000000     0.894880000000     0.0323258  
C216     C      0.496040000000     0.796340000000     0.937400000000     0.0320515  
C217     C      0.529830000000     0.997360000000     0.079220000000     0.0329544  
C218     C      0.492000000000     0.982990000000     0.015850000000     0.0346279  
C219     C      0.504630000000     0.015700000000     0.005200000000     0.0328535  
C220     C      0.542460000000     0.030070000000     0.068570000000     0.0345721  
C221     C      0.212660000000     0.537290000000     0.144730000000     0.0334705  
C222     C      0.158390000000     0.495340000000     0.158740000000     0.0336905  
C223     C      0.169960000000     0.479470000000     0.187670000000     0.0337943  
C224     C      0.224180000000     0.521840000000     0.174660000000     0.0330757  
C225     C      0.163660000000     0.177110000000     0.582600000000     0.0331672  
C226     C      0.211910000000     0.199460000000     0.536280000000     0.0332413  
C227     C      0.223270000000     0.182970000000     0.564140000000     0.0331212  
C228     C      0.175160000000     0.160770000000     0.610760000000     0.0331652  
C229     C      0.195050000000     0.333460000000     0.419550000000     0.0330223  
C230     C      0.157800000000     0.313790000000     0.355030000000     0.0344396  
C231     C      0.169990000000     0.345370000000     0.338620000000     0.0323445  
C232     C      0.207090000000     0.365160000000     0.403330000000     0.0322872  
C233     C      0.157650000000     0.656410000000     0.657110000000     0.0338014  
C234     C      0.211910000000     0.668580000000     0.643140000000     0.0334137  
C235     C      0.223460000000     0.695630000000     0.672860000000     0.0332441  
C236     C      0.169250000000     0.683880000000     0.685890000000     0.0341389  
C237     C      0.217810000000     0.539100000000     0.483380000000     0.0327922  
C238     C      0.170670000000     0.524910000000     0.437250000000     0.0322105  
C239     C      0.181080000000     0.510930000000     0.403050000000     0.0322842  
C240     C      0.228540000000     0.525450000000     0.448590000000     0.0320448  
C241     C      0.810720000000     0.316160000000     0.412440000000     0.0333132  
C242     C      0.865060000000     0.328350000000     0.399350000000     0.0340557  
C243     C      0.876470000000     0.355780000000     0.428180000000     0.0338721  
C244     C      0.822080000000     0.343170000000     0.442220000000     0.0333926  
C245     C      0.992510000000     0.480880000000     0.568560000000     0.0357878  
C246     C      0.007950000000     0.518190000000     0.504850000000     0.0321204  
C247     C      0.040810000000     0.531160000000     0.517220000000     0.0345638  
C248     C      0.025360000000     0.493860000000     0.580930000000     0.0318052  
C249     C      0.527520000000     0.336800000000     0.326470000000     0.0335125  
C250     C      0.479020000000     0.311510000000     0.372330000000     0.0330569  
C251     C      0.490850000000     0.339150000000     0.400730000000     0.0338108  
C252     C      0.539360000000     0.364520000000     0.354890000000     0.0333135  
C253     C      0.537710000000     0.216450000000     0.146290000000     0.0321767  
C254     C      0.520590000000     0.168130000000     0.189460000000     0.0323568  
C255     C      0.533980000000     0.157530000000     0.154440000000     0.0320821  
C256     C      0.550910000000     0.205650000000     0.110810000000     0.0325766  
C257     C      0.216570000000     0.026240000000     0.080880000000     0.0334273  
C258     C      0.162570000000     0.009830000000     0.104920000000     0.0344029  
C259     C      0.150690000000     0.983210000000     0.074330000000     0.0326476  
C260     C      0.204730000000     0.999150000000     0.051120000000     0.0319778  
C261     C      0.181030000000     0.177090000000     0.251340000000     0.0320557  
C262     C      0.164450000000     0.129670000000     0.296620000000     0.0319615  
C263     C      0.151560000000     0.141150000000     0.331620000000     0.0326234  
C264     C      0.168120000000     0.188410000000     0.285960000000     0.0323888  
C265     C      0.324330000000     0.150040000000     0.248530000000     0.0326195  
C266     C      0.344330000000     0.178710000000     0.176030000000     0.0329674  
C267     C      0.376400000000     0.191160000000     0.192210000000     0.0322993  
C268     C      0.356420000000     0.162410000000     0.264650000000     0.0328228  
C269     C      0.863610000000     0.532300000000     0.898430000000     0.0338106  
C270     C      0.809530000000     0.489640000000     0.911400000000     0.0331041  
C271     C      0.821240000000     0.474330000000     0.941260000000     0.033456   
C272     C      0.875370000000     0.516590000000     0.927310000000     0.0337767  
C273     C      0.804530000000     0.485650000000     0.637650000000     0.0320185  
C274     C      0.852130000000     0.500410000000     0.682960000000     0.0324929  
C275     C      0.862580000000     0.486500000000     0.648690000000     0.0321265  
C276     C      0.815280000000     0.472060000000     0.602790000000     0.0328186  
C277     C      0.809010000000     0.827480000000     0.521060000000     0.0332639  
C278     C      0.856560000000     0.849070000000     0.473270000000     0.0331452  
C279     C      0.868210000000     0.832770000000     0.501210000000     0.0332686  
C280     C      0.820500000000     0.811000000000     0.548680000000     0.0333281  
C281     C      0.867070000000     0.823850000000     0.798140000000     0.032431   
C282     C      0.881390000000     0.869940000000     0.750760000000     0.0326941  
C283     C      0.868580000000     0.881470000000     0.785800000000     0.0320824  
C284     C      0.854230000000     0.835220000000     0.832800000000     0.0320833  
C285     C      0.875190000000     0.697250000000     0.729720000000     0.0343261  
C286     C      0.837680000000     0.677310000000     0.665520000000     0.0328609  
C287     C      0.825650000000     0.645690000000     0.682100000000     0.0323792  
C288     C      0.862990000000     0.665750000000     0.746490000000     0.0324211  
C289     C      0.042160000000     0.177270000000     0.082090000000     0.033592   
C290     C      0.016630000000     0.198380000000     0.033410000000     0.0327868  
C291     C      0.988290000000     0.182160000000     0.061030000000     0.0348177  
C292     C      0.013800000000     0.161180000000     0.110000000000     0.0323827  
C293     C      0.156200000000     0.146820000000     0.986910000000     0.0337495  
C294     C      0.196170000000     0.200200000000     0.008110000000     0.033981   
C295     C      0.212030000000     0.188240000000     0.036380000000     0.0337857  
C296     C      0.171630000000     0.134840000000     0.016050000000     0.0326546  
C297     C      0.323240000000     0.518700000000     0.668120000000     0.0330062  
C298     C      0.335300000000     0.477170000000     0.681900000000     0.0338297  
C299     C      0.362990000000     0.493290000000     0.652870000000     0.0338705  
C300     C      0.350460000000     0.534390000000     0.638070000000     0.0334689  
C301     C      0.192770000000     0.512140000000     0.764960000000     0.0339288  
C302     C      0.169430000000     0.464870000000     0.717520000000     0.0333451  
C303     C      0.154550000000     0.477560000000     0.688760000000     0.0338911  
C304     C      0.177820000000     0.524830000000     0.736210000000     0.0333031  
C305     C      0.184700000000     0.361780000000     0.899320000000     0.0323835  
C306     C      0.200300000000     0.342490000000     0.832520000000     0.0325441  
C307     C      0.181660000000     0.310910000000     0.849730000000     0.0335759  
C308     C      0.165770000000     0.330090000000     0.916360000000     0.0324172  
C309     C      0.696710000000     0.158150000000     0.906410000000     0.0338332  
C310     C      0.708900000000     0.211770000000     0.920200000000     0.0330319  
C311     C      0.681400000000     0.200300000000     0.949660000000     0.0334885  
C312     C      0.668780000000     0.146650000000     0.934880000000     0.0338966  
C313     C      0.854750000000     0.364090000000     0.850700000000     0.0334906  
C314     C      0.879150000000     0.341060000000     0.897810000000     0.0341187  
C315     C      0.864220000000     0.313210000000     0.869610000000     0.0332887  
C316     C      0.839760000000     0.336180000000     0.822490000000     0.0337334  
C317     C      0.991720000000     0.139290000000     0.509700000000     0.0342932  
C318     C      0.008790000000     0.191840000000     0.538460000000     0.0333893  
C319     C      0.037070000000     0.204130000000     0.510630000000     0.0342217  
C320     C      0.019760000000     0.151680000000     0.481200000000     0.0321978  
C321     C      0.880640000000     0.010490000000     0.599060000000     0.0348979  
C322     C      0.838580000000     0.022130000000     0.583920000000     0.0338455  
C323     C      0.823060000000     0.995100000000     0.554000000000     0.0323771  
C324     C      0.865630000000     0.984040000000     0.568170000000     0.0326832  
C325     C      0.028740000000     0.167980000000     0.746560000000     0.0312656  
C326     C      0.990930000000     0.127490000000     0.798630000000     0.0336646  
C327     C      0.014870000000     0.138620000000     0.834500000000     0.0315016  
C328     C      0.052640000000     0.178830000000     0.782050000000     0.0321844  
C329     C      0.865420000000     0.177810000000     0.674000000000     0.032738   
C330     C      0.858520000000     0.151190000000     0.747860000000     0.0323305  
C331     C      0.839130000000     0.163550000000     0.764310000000     0.0327855  
C332     C      0.846110000000     0.190250000000     0.690520000000     0.0322607  
C333     C      0.374460000000     0.844370000000     0.733230000000     0.0332459  
C334     C      0.347340000000     0.865300000000     0.687700000000     0.0335751  
C335     C      0.320180000000     0.849670000000     0.717750000000     0.0334076  
C336     C      0.347200000000     0.828620000000     0.763240000000     0.0336898  
C337     C      0.480830000000     0.810840000000     0.634800000000     0.0335886  
C338     C      0.524800000000     0.864100000000     0.646240000000     0.0339438  
C339     C      0.540710000000     0.852310000000     0.674660000000     0.033853   
C340     C      0.496390000000     0.799110000000     0.664170000000     0.0330228  
C341     C      0.659870000000     0.168410000000     0.351290000000     0.0332625  
C342     C      0.686530000000     0.147070000000     0.396980000000     0.033699   
C343     C      0.713790000000     0.162540000000     0.367070000000     0.0333088  
C344     C      0.687220000000     0.183990000000     0.321410000000     0.033826   
C345     C      0.508980000000     0.148420000000     0.437400000000     0.0340105  
C346     C      0.552730000000     0.201770000000     0.449090000000     0.0335334  
C347     C      0.537090000000     0.213420000000     0.419710000000     0.033069   
C348     C      0.492980000000     0.160130000000     0.408980000000     0.0338954  
C349     C      0.654340000000     0.156610000000     0.653260000000     0.0322201  
C350     C      0.686750000000     0.204780000000     0.609790000000     0.0327853  
C351     C      0.710910000000     0.215450000000     0.645310000000     0.0322772  
C352     C      0.678490000000     0.167080000000     0.688320000000     0.0322936  
C353     C      0.495320000000     0.997470000000     0.579570000000     0.0330851  
C354     C      0.518250000000     0.982870000000     0.516140000000     0.0347221  
C355     C      0.538830000000     0.015520000000     0.505020000000     0.0330037  
C356     C      0.515900000000     0.030120000000     0.568450000000     0.0346581  
C357     C      0.024010000000     0.819190000000     0.543690000000     0.0330282  
C358     C      0.041220000000     0.871600000000     0.573220000000     0.0330094  
C359     C      0.013190000000     0.859110000000     0.601740000000     0.032604   
C360     C      0.995750000000     0.806800000000     0.571590000000     0.035479   
C361     C      0.150720000000     0.000560000000     0.485090000000     0.0349424  
C362     C      0.193680000000     0.989900000000     0.497970000000     0.0338271  
C363     C      0.209060000000     0.016710000000     0.528320000000     0.0326685  
C364     C      0.165610000000     0.026770000000     0.516440000000     0.0326032  
C365     C      0.337630000000     0.855010000000     0.177310000000     0.0337892  
C366     C      0.325380000000     0.801380000000     0.163440000000     0.0329979  
C367     C      0.352900000000     0.812840000000     0.134020000000     0.0334676  
C368     C      0.365570000000     0.866500000000     0.148870000000     0.0338808  
C369     C      0.194850000000     0.676790000000     0.261840000000     0.0335565  
C370     C      0.170210000000     0.699440000000     0.214390000000     0.0332209  
C371     C      0.155310000000     0.671470000000     0.186460000000     0.0339929  
C372     C      0.179890000000     0.648760000000     0.233890000000     0.0336198  
C373     C      0.355380000000     0.846520000000     0.395950000000     0.0322505  
C374     C      0.323340000000     0.797740000000     0.438260000000     0.0321649  
C375     C      0.347470000000     0.808400000000     0.473820000000     0.0328034  
C376     C      0.379490000000     0.856990000000     0.431070000000     0.0322851  
C377     C      0.187530000000     0.822370000000     0.392550000000     0.0321577  
C378     C      0.194300000000     0.848840000000     0.318590000000     0.0326901  
C379     C      0.174680000000     0.860980000000     0.334880000000     0.0323769  
C380     C      0.168010000000     0.834610000000     0.408900000000     0.0327236  
C381     C      0.708590000000     0.492270000000     0.417700000000     0.0331155  
C382     C      0.696870000000     0.534030000000     0.404030000000     0.0339419  
C383     C      0.669140000000     0.518010000000     0.433040000000     0.0337223  
C384     C      0.681350000000     0.476670000000     0.447720000000     0.0333966  
C385     C      0.839710000000     0.499160000000     0.321170000000     0.0338808  
C386     C      0.862760000000     0.546390000000     0.368700000000     0.033419   
C387     C      0.877860000000     0.533860000000     0.397370000000     0.0339052  
C388     C      0.854870000000     0.486640000000     0.349820000000     0.0333977  
C389     C      0.990210000000     0.833550000000     0.001820000000     0.0347054  
C390     C      0.015270000000     0.811790000000     0.050160000000     0.0331017  
C391     C      0.043710000000     0.827990000000     0.022730000000     0.0336004  
C392     C      0.018660000000     0.849620000000     0.974090000000     0.032163   
C393     C      0.835770000000     0.809510000000     0.073890000000     0.0340808  
C394     C      0.874510000000     0.862680000000     0.097880000000     0.033658   
C395     C      0.859150000000     0.874780000000     0.068850000000     0.0328131  
C396     C      0.820000000000     0.821560000000     0.045660000000     0.033801   
C397     C      0.003680000000     0.843030000000     0.336320000000     0.0296081  
C398     C      0.041200000000     0.883530000000     0.284000000000     0.0323273  
C399     C      0.017150000000     0.872210000000     0.248280000000     0.0318838  
C400     C      0.979690000000     0.831970000000     0.300980000000     0.033909   
C401     C      0.866190000000     0.680240000000     0.168350000000     0.0325516  
C402     C      0.850250000000     0.699710000000     0.234560000000     0.0336186  
C403     C      0.831650000000     0.668220000000     0.252110000000     0.0325011  
C404     C      0.847300000000     0.648630000000     0.185720000000     0.0323472  
C405     C      0.684100000000     0.533160000000     0.897160000000     0.0338158  
C406     C      0.657550000000     0.485560000000     0.850570000000     0.033336   
C407     C      0.684980000000     0.497550000000     0.820840000000     0.0338247  
C408     C      0.711440000000     0.545150000000     0.867420000000     0.0334615  
C409     C      0.550130000000     0.344220000000     0.948000000000     0.0335412  
C410     C      0.506570000000     0.354020000000     0.935270000000     0.0340134  
C411     C      0.490840000000     0.326460000000     0.906550000000     0.0340126  
C412     C      0.534770000000     0.317100000000     0.918340000000     0.0332411  
C413     C      0.684670000000     0.474750000000     0.107050000000     0.0328768  
C414     C      0.651620000000     0.488900000000     0.152290000000     0.0323273  
C415     C      0.675940000000     0.502680000000     0.187060000000     0.0323012  
C416     C      0.708990000000     0.488280000000     0.142300000000     0.032094   
C417     C      0.321650000000     0.465890000000     0.218940000000     0.0334656  
C418     C      0.348120000000     0.513610000000     0.265270000000     0.033798   
C419     C      0.375470000000     0.525600000000     0.235390000000     0.033381   
C420     C      0.348920000000     0.477890000000     0.189050000000     0.0338923  
C421     C      0.525700000000     0.657290000000     0.149660000000     0.0340275  
C422     C      0.481940000000     0.666810000000     0.137070000000     0.0335245  
C423     C      0.497230000000     0.693960000000     0.166690000000     0.0333956  
C424     C      0.541350000000     0.684870000000     0.178350000000     0.0340035  
C425     C      0.380520000000     0.521960000000     0.933420000000     0.0322822  
C426     C      0.347340000000     0.535740000000     0.979060000000     0.0330612  
C427     C      0.322980000000     0.522190000000     0.943880000000     0.0320544  
C428     C      0.356160000000     0.508160000000     0.898720000000     0.0322833  
C429     C      0.494800000000     0.493250000000     0.080360000000     0.032909   
C430     C      0.517700000000     0.530480000000     0.016590000000     0.0344753  
C431     C      0.537730000000     0.517840000000     0.005020000000     0.0329469  
C432     C      0.514820000000     0.480610000000     0.068780000000     0.0345967  
H1       H      0.727160000000     0.839920000000     0.323100000000     0.0438488  
H2       H      0.690690000000     0.862890000000     0.447860000000     0.0461235  
H3       H      0.635270000000     0.829190000000     0.419110000000     0.0440132  
H4       H      0.671700000000     0.806270000000     0.294270000000     0.0457647  
H5       H      0.911170000000     0.025080000000     0.257730000000     0.0430047  
H6       H      0.822430000000     0.027810000000     0.264950000000     0.0453719  
H7       H      0.801820000000     0.986580000000     0.325350000000     0.0454573  
H8       H      0.889810000000     0.982440000000     0.318410000000     0.0430656  
H9       H      0.833570000000     0.147050000000     0.132980000000     0.045876   
H10      H      0.894670000000     0.171680000000     0.256630000000     0.0439955  
H11      H      0.874040000000     0.205910000000     0.284640000000     0.0455072  
H12      H      0.813060000000     0.181360000000     0.160870000000     0.0439751  
H13      H      0.496100000000     0.616330000000     0.424980000000     0.0447557  
H14      H      0.470230000000     0.674810000000     0.508570000000     0.0436104  
H15      H      0.493230000000     0.716690000000     0.447340000000     0.0438747  
H16      H      0.519290000000     0.657960000000     0.364730000000     0.0452827  
H17      H      0.493470000000     0.467610000000     0.475280000000     0.0449835  
H18      H      0.561330000000     0.510100000000     0.590670000000     0.0457387  
H19      H      0.538500000000     0.544050000000     0.609540000000     0.0450021  
H20      H      0.470630000000     0.501560000000     0.494150000000     0.0457362  
H21      H      0.221190000000     0.830370000000     0.924620000000     0.0439564  
H22      H      0.158870000000     0.803990000000     0.802140000000     0.0455321  
H23      H      0.137620000000     0.837630000000     0.830290000000     0.0441038  
H24      H      0.200050000000     0.864150000000     0.952670000000     0.045632   
H25      H      0.510760000000     0.352550000000     0.719520000000     0.0453284  
H26      H      0.538950000000     0.294970000000     0.638200000000     0.043955   
H27      H      0.561970000000     0.336950000000     0.577120000000     0.0435425  
H28      H      0.533950000000     0.394280000000     0.659430000000     0.0447116  
H29      H      0.144710000000     0.031500000000     0.772170000000     0.043048   
H30      H      0.225890000000     0.017240000000     0.750270000000     0.0455622  
H31      H      0.205240000000     0.975990000000     0.810630000000     0.0454108  
H32      H      0.123270000000     0.988920000000     0.832950000000     0.0426296  
H33      H      0.304440000000     0.169060000000     0.763390000000     0.0437287  
H34      H      0.341190000000     0.147300000000     0.637800000000     0.0461569  
H35      H      0.396580000000     0.181350000000     0.666390000000     0.04402    
H36      H      0.359890000000     0.203080000000     0.792080000000     0.0456413  
H37      H      0.801830000000     0.334270000000     0.070490000000     0.0434812  
H38      H      0.885590000000     0.395820000000     0.155590000000     0.0449668  
H39      H      0.868010000000     0.354010000000     0.215280000000     0.0453019  
H40      H      0.783700000000     0.292250000000     0.131320000000     0.0438693  
H41      H      0.150260000000     0.615750000000     0.928930000000     0.0448752  
H42      H      0.232800000000     0.678210000000     0.015480000000     0.0434239  
H43      H      0.250950000000     0.720160000000     0.954530000000     0.0438718  
H44      H      0.167840000000     0.657480000000     0.869110000000     0.0452242  
H45      H      0.032410000000     0.543050000000     0.111170000000     0.0452278  
H46      H      0.059300000000     0.503160000000     0.994980000000     0.0458125  
H47      H      0.002210000000     0.469570000000     0.973540000000     0.0450551  
H48      H      0.975320000000     0.509470000000     0.089720000000     0.0457315  
H49      H      0.489790000000     0.675640000000     0.786540000000     0.0448494  
H50      H      0.577440000000     0.720580000000     0.703160000000     0.0443592  
H51      H      0.556470000000     0.672500000000     0.654250000000     0.0440345  
H52      H      0.468800000000     0.627350000000     0.737580000000     0.0440324  
H53      H      0.910660000000     0.042100000000     0.016100000000     0.0443927  
H54      H      0.812500000000     0.017150000000     0.048980000000     0.044397   
H55      H      0.792110000000     0.970510000000     0.996530000000     0.0435442  
H56      H      0.890350000000     0.996270000000     0.962510000000     0.0453396  
H57      H      0.729070000000     0.877080000000     0.810820000000     0.0439374  
H58      H      0.692820000000     0.826210000000     0.942780000000     0.0452961  
H59      H      0.637240000000     0.804840000000     0.914860000000     0.0438078  
H60      H      0.673450000000     0.855840000000     0.782970000000     0.0455977  
H61      H      0.563870000000     0.175000000000     0.847380000000     0.0439993  
H62      H      0.475460000000     0.132760000000     0.928970000000     0.0439907  
H63      H      0.454780000000     0.159480000000     0.878560000000     0.0443225  
H64      H      0.543210000000     0.201930000000     0.796980000000     0.0447331  
H65      H      0.578290000000     0.851900000000     0.206380000000     0.0443245  
H66      H      0.489680000000     0.810260000000     0.287450000000     0.04467    
H67      H      0.469670000000     0.837720000000     0.236930000000     0.043996   
H68      H      0.558260000000     0.879130000000     0.155830000000     0.0438704  
H69      H      0.471160000000     0.791750000000     0.003520000000     0.0433719  
H70      H      0.503620000000     0.879540000000     0.925520000000     0.0449067  
H71      H      0.526290000000     0.860950000000     0.864720000000     0.0453291  
H72      H      0.493730000000     0.772760000000     0.941710000000     0.0441192  
H73      H      0.540500000000     0.991190000000     0.108780000000     0.0449521  
H74      H      0.472030000000     0.965180000000     0.994070000000     0.0459126  
H75      H      0.493950000000     0.021860000000     0.975630000000     0.0450763  
H76      H      0.562430000000     0.047880000000     0.090340000000     0.0458401  
H77      H      0.230360000000     0.560250000000     0.128860000000     0.0437813  
H78      H      0.132150000000     0.484260000000     0.153930000000     0.0438817  
H79      H      0.152210000000     0.456830000000     0.204290000000     0.0460391  
H80      H      0.250360000000     0.533370000000     0.180530000000     0.0442395  
H81      H      0.139720000000     0.173740000000     0.590690000000     0.0438585  
H82      H      0.227080000000     0.214180000000     0.506870000000     0.0435368  
H83      H      0.246870000000     0.185760000000     0.555220000000     0.0446442  
H84      H      0.159690000000     0.145420000000     0.639460000000     0.044758   
H85      H      0.205670000000     0.329790000000     0.451610000000     0.0439735  
H86      H      0.138300000000     0.294250000000     0.334730000000     0.0460655  
H87      H      0.159410000000     0.348910000000     0.306420000000     0.0457221  
H88      H      0.226620000000     0.384780000000     0.423460000000     0.0435259  
H89      H      0.131400000000     0.641280000000     0.652340000000     0.0441717  
H90      H      0.229580000000     0.663230000000     0.627360000000     0.0439116  
H91      H      0.249650000000     0.710270000000     0.678690000000     0.0442232  
H92      H      0.151510000000     0.688840000000     0.702460000000     0.0461608  
H93      H      0.232800000000     0.549640000000     0.514970000000     0.0434428  
H94      H      0.147550000000     0.523960000000     0.431270000000     0.0450173  
H95      H      0.165670000000     0.500040000000     0.371920000000     0.0453384  
H96      H      0.251470000000     0.526010000000     0.454410000000     0.0437956  
H97      H      0.784540000000     0.301360000000     0.406630000000     0.0442244  
H98      H      0.882910000000     0.323570000000     0.382740000000     0.0462463  
H99      H      0.902700000000     0.371070000000     0.432930000000     0.0443291  
H100     H      0.804290000000     0.348330000000     0.458050000000     0.0439109  
H101     H      0.974210000000     0.461020000000     0.589850000000     0.0458745  
H102     H      0.002140000000     0.528530000000     0.474540000000     0.0449818  
H103     H      0.059120000000     0.551020000000     0.495930000000     0.0457877  
H104     H      0.031160000000     0.483510000000     0.611240000000     0.0452196  
H105     H      0.542980000000     0.336710000000     0.297890000000     0.0448017  
H106     H      0.455140000000     0.290990000000     0.380810000000     0.0443719  
H107     H      0.475710000000     0.338870000000     0.430070000000     0.0439783  
H108     H      0.563550000000     0.384800000000     0.347180000000     0.0439944  
H109     H      0.539560000000     0.239820000000     0.141700000000     0.0440272  
H110     H      0.508810000000     0.152380000000     0.219870000000     0.0453036  
H111     H      0.531760000000     0.134010000000     0.159160000000     0.0449008  
H112     H      0.562380000000     0.221030000000     0.079970000000     0.0434353  
H113     H      0.242770000000     0.042960000000     0.081870000000     0.0435689  
H114     H      0.145000000000     0.013270000000     0.125160000000     0.0452163  
H115     H      0.124410000000     0.966970000000     0.072430000000     0.044185   
H116     H      0.222190000000     0.995970000000     0.030150000000     0.0440292  
H117     H      0.192440000000     0.192230000000     0.220250000000     0.0455179  
H118     H      0.162680000000     0.106410000000     0.302180000000     0.043708   
H119     H      0.140410000000     0.126410000000     0.363130000000     0.0430887  
H120     H      0.170310000000     0.211840000000     0.280180000000     0.0453649  
H121     H      0.304470000000     0.133870000000     0.271960000000     0.0438894  
H122     H      0.340670000000     0.185780000000     0.140750000000     0.0453909  
H123     H      0.396250000000     0.207370000000     0.168800000000     0.0438289  
H124     H      0.360090000000     0.155370000000     0.299940000000     0.045609   
H125     H      0.881230000000     0.555020000000     0.881840000000     0.0461884  
H126     H      0.783330000000     0.477930000000     0.905520000000     0.0442413  
H127     H      0.803670000000     0.451300000000     0.957090000000     0.0438329  
H128     H      0.901640000000     0.527850000000     0.932110000000     0.044099   
H129     H      0.781530000000     0.484970000000     0.631950000000     0.0438285  
H130     H      0.867600000000     0.511380000000     0.714020000000     0.0453799  
H131     H      0.885760000000     0.487580000000     0.654550000000     0.0451941  
H132     H      0.800250000000     0.461460000000     0.571260000000     0.043419   
H133     H      0.785580000000     0.824920000000     0.530520000000     0.0446554  
H134     H      0.871760000000     0.864180000000     0.444170000000     0.0448351  
H135     H      0.891990000000     0.835920000000     0.492590000000     0.0440013  
H136     H      0.805600000000     0.796540000000     0.578460000000     0.0435966  
H137     H      0.865760000000     0.800880000000     0.804610000000     0.0453901  
H138     H      0.891600000000     0.884170000000     0.718550000000     0.0432863  
H139     H      0.869470000000     0.904260000000     0.779550000000     0.0436884  
H140     H      0.843740000000     0.820570000000     0.864610000000     0.0455492  
H141     H      0.894800000000     0.716880000000     0.749750000000     0.0462587  
H142     H      0.826960000000     0.680840000000     0.633460000000     0.0439637  
H143     H      0.806010000000     0.625990000000     0.662230000000     0.0434979  
H144     H      0.873680000000     0.662350000000     0.778690000000     0.0457966  
H145     H      0.062750000000     0.174270000000     0.091180000000     0.0438776  
H146     H      0.016500000000     0.212500000000     0.003150000000     0.044154   
H147     H      0.967460000000     0.184560000000     0.051080000000     0.0446403  
H148     H      0.013540000000     0.146380000000     0.139560000000     0.0447061  
H149     H      0.134030000000     0.129590000000     0.968350000000     0.043571   
H150     H      0.206430000000     0.226200000000     0.006470000000     0.0437364  
H151     H      0.233810000000     0.205450000000     0.055750000000     0.046028   
H152     H      0.160840000000     0.108810000000     0.018760000000     0.0440193  
H153     H      0.308420000000     0.529800000000     0.673740000000     0.0441388  
H154     H      0.330400000000     0.454780000000     0.698880000000     0.0461169  
H155     H      0.378340000000     0.482650000000     0.648350000000     0.0440399  
H156     H      0.355760000000     0.557120000000     0.621870000000     0.0438791  
H157     H      0.208050000000     0.526790000000     0.794340000000     0.0450696  
H158     H      0.165750000000     0.441210000000     0.708520000000     0.0440288  
H159     H      0.139970000000     0.463240000000     0.658640000000     0.0440363  
H160     H      0.182120000000     0.548820000000     0.744450000000     0.044006   
H161     H      0.185230000000     0.381210000000     0.920040000000     0.0434826  
H162     H      0.213500000000     0.346240000000     0.799200000000     0.0455937  
H163     H      0.181190000000     0.291560000000     0.828890000000     0.0465298  
H164     H      0.152450000000     0.326220000000     0.949580000000     0.043952   
H165     H      0.701670000000     0.140620000000     0.889660000000     0.0460368  
H166     H      0.723880000000     0.237700000000     0.914780000000     0.0440882  
H167     H      0.676040000000     0.217770000000     0.965630000000     0.0438798  
H168     H      0.653300000000     0.120670000000     0.939210000000     0.0443203  
H169     H      0.850010000000     0.383480000000     0.842400000000     0.0440226  
H170     H      0.894210000000     0.341790000000     0.927590000000     0.0442378  
H171     H      0.868370000000     0.293540000000     0.878700000000     0.0442373  
H172     H      0.824010000000     0.335050000000     0.793470000000     0.0450993  
H173     H      0.974640000000     0.113410000000     0.508880000000     0.0440892  
H174     H      0.005650000000     0.208530000000     0.560990000000     0.0458741  
H175     H      0.054570000000     0.229880000000     0.512530000000     0.0442221  
H176     H      0.023350000000     0.134920000000     0.459530000000     0.0438225  
H177     H      0.903520000000     0.015830000000     0.615780000000     0.0450643  
H178     H      0.827380000000     0.036900000000     0.588600000000     0.0432723  
H179     H      0.800480000000     0.990010000000     0.536560000000     0.0448787  
H180     H      0.877350000000     0.969820000000     0.562530000000     0.0441572  
H181     H      0.035360000000     0.180430000000     0.712400000000     0.0451426  
H182     H      0.966770000000     0.107280000000     0.806640000000     0.0438794  
H183     H      0.008310000000     0.126640000000     0.869000000000     0.0437716  
H184     H      0.076620000000     0.199310000000     0.773890000000     0.0452856  
H185     H      0.875300000000     0.184050000000     0.638050000000     0.0448064  
H186     H      0.862810000000     0.135850000000     0.771720000000     0.0442861  
H187     H      0.829240000000     0.157310000000     0.800250000000     0.0452607  
H188     H      0.841860000000     0.205630000000     0.666660000000     0.043759   
H189     H      0.395260000000     0.841280000000     0.740250000000     0.0439482  
H190     H      0.346190000000     0.879210000000     0.657910000000     0.0439545  
H191     H      0.299110000000     0.852180000000     0.709990000000     0.0442767  
H192     H      0.347970000000     0.813990000000     0.792270000000     0.0447005  
H193     H      0.457020000000     0.793660000000     0.620200000000     0.0439914  
H194     H      0.536670000000     0.890040000000     0.640610000000     0.0444062  
H195     H      0.564210000000     0.869580000000     0.690060000000     0.0462145  
H196     H      0.484110000000     0.773270000000     0.670910000000     0.0440922  
H197     H      0.639220000000     0.171720000000     0.344160000000     0.0439582  
H198     H      0.687470000000     0.133050000000     0.426770000000     0.0439802  
H199     H      0.734710000000     0.159810000000     0.374950000000     0.0443385  
H200     H      0.686670000000     0.198730000000     0.292360000000     0.0447303  
H201     H      0.497220000000     0.122480000000     0.442940000000     0.044385   
H202     H      0.576480000000     0.219020000000     0.463780000000     0.0439747  
H203     H      0.549250000000     0.239260000000     0.413070000000     0.0440889  
H204     H      0.469550000000     0.142790000000     0.393500000000     0.0462328  
H205     H      0.632480000000     0.133110000000     0.657890000000     0.0449644  
H206     H      0.691080000000     0.220230000000     0.579010000000     0.0435545  
H207     H      0.732970000000     0.238800000000     0.640800000000     0.0443754  
H208     H      0.674120000000     0.151290000000     0.718690000000     0.0453327  
H209     H      0.478480000000     0.991410000000     0.609320000000     0.0449151  
H210     H      0.519990000000     0.964990000000     0.494500000000     0.046034   
H211     H      0.555650000000     0.021580000000     0.475270000000     0.044981   
H212     H      0.514150000000     0.048000000000     0.590080000000     0.0460294  
H213     H      0.027090000000     0.802600000000     0.520840000000     0.0460638  
H214     H      0.058350000000     0.897460000000     0.574330000000     0.0441371  
H215     H      0.009670000000     0.875780000000     0.623750000000     0.0436122  
H216     H      0.978200000000     0.781070000000     0.569420000000     0.0441877  
H217     H      0.127520000000     0.994890000000     0.469150000000     0.0448861  
H218     H      0.205300000000     0.975600000000     0.492220000000     0.043312   
H219     H      0.231970000000     0.022110000000     0.545000000000     0.0451872  
H220     H      0.153490000000     0.040500000000     0.523180000000     0.0440278  
H221     H      0.332690000000     0.872540000000     0.194080000000     0.0459824  
H222     H      0.310370000000     0.775450000000     0.168820000000     0.0440768  
H223     H      0.358240000000     0.795370000000     0.118030000000     0.0438954  
H224     H      0.381080000000     0.892480000000     0.144590000000     0.0443215  
H225     H      0.210660000000     0.678100000000     0.290890000000     0.0451586  
H226     H      0.165980000000     0.719020000000     0.205080000000     0.0441309  
H227     H      0.140200000000     0.670560000000     0.156640000000     0.0441336  
H228     H      0.184730000000     0.629460000000     0.242420000000     0.0439527  
H229     H      0.359610000000     0.862480000000     0.365860000000     0.045328   
H230     H      0.301450000000     0.774230000000     0.442450000000     0.0444428  
H231     H      0.343280000000     0.792780000000     0.504320000000     0.0435461  
H232     H      0.401180000000     0.880660000000     0.426760000000     0.0449456  
H233     H      0.191950000000     0.807180000000     0.416530000000     0.0437172  
H234     H      0.204170000000     0.855050000000     0.282640000000     0.0451768  
H235     H      0.170230000000     0.876150000000     0.310890000000     0.0441483  
H236     H      0.158140000000     0.828400000000     0.444860000000     0.0447356  
H237     H      0.723300000000     0.481030000000     0.412040000000     0.0441073  
H238     H      0.701910000000     0.556480000000     0.387110000000     0.0460696  
H239     H      0.653910000000     0.528770000000     0.437580000000     0.0440959  
H240     H      0.675910000000     0.453880000000     0.463850000000     0.0439223  
H241     H      0.824480000000     0.484470000000     0.291790000000     0.0451067  
H242     H      0.866270000000     0.569970000000     0.377780000000     0.0440889  
H243     H      0.892390000000     0.548210000000     0.427490000000     0.0441427  
H244     H      0.850750000000     0.462730000000     0.341490000000     0.0440315  
H245     H      0.969770000000     0.836810000000     0.992800000000     0.0439553  
H246     H      0.015180000000     0.797410000000     0.080210000000     0.043982   
H247     H      0.064390000000     0.825320000000     0.032620000000     0.0446231  
H248     H      0.019140000000     0.864670000000     0.944740000000     0.0446632  
H249     H      0.825990000000     0.783550000000     0.074380000000     0.043781   
H250     H      0.896170000000     0.879800000000     0.117560000000     0.0437516  
H251     H      0.869480000000     0.900800000000     0.067300000000     0.0441671  
H252     H      0.798770000000     0.804490000000     0.025160000000     0.0460778  
H253     H      0.997220000000     0.830630000000     0.370530000000     0.0465932  
H254     H      0.065280000000     0.903830000000     0.275840000000     0.043798   
H255     H      0.023540000000     0.884130000000     0.213720000000     0.0436381  
H256     H      0.955790000000     0.811410000000     0.309300000000     0.0450869  
H257     H      0.879520000000     0.683950000000     0.135180000000     0.0440031  
H258     H      0.850690000000     0.719150000000     0.255120000000     0.0465273  
H259     H      0.818450000000     0.664620000000     0.285390000000     0.0456204  
H260     H      0.846800000000     0.629110000000     0.165300000000     0.0435684  
H261     H      0.684950000000     0.547870000000     0.927260000000     0.0441315  
H262     H      0.636910000000     0.461690000000     0.843020000000     0.0439941  
H263     H      0.684510000000     0.482510000000     0.791460000000     0.0448929  
H264     H      0.732340000000     0.568710000000     0.875710000000     0.0442703  
H265     H      0.573710000000     0.350590000000     0.963240000000     0.0440624  
H266     H      0.494820000000     0.368250000000     0.940490000000     0.0442517  
H267     H      0.467590000000     0.320490000000     0.890500000000     0.0463316  
H268     H      0.546960000000     0.303400000000     0.912000000000     0.0441529  
H269     H      0.689180000000     0.464270000000     0.075640000000     0.0436806  
H270     H      0.629430000000     0.489870000000     0.157720000000     0.0449661  
H271     H      0.671380000000     0.513500000000     0.218030000000     0.0452872  
H272     H      0.731380000000     0.487700000000     0.136980000000     0.0441972  
H273     H      0.300780000000     0.442280000000     0.210810000000     0.0442882  
H274     H      0.348610000000     0.528690000000     0.294600000000     0.0449015  
H275     H      0.396080000000     0.549520000000     0.242770000000     0.0439868  
H276     H      0.348030000000     0.463130000000     0.158990000000     0.0441415  
H277     H      0.537570000000     0.643170000000     0.144410000000     0.0442332  
H278     H      0.458310000000     0.660310000000     0.121890000000     0.0440598  
H279     H      0.484920000000     0.707550000000     0.173070000000     0.0440864  
H280     H      0.564650000000     0.690960000000     0.194340000000     0.0463846  
H281     H      0.402780000000     0.521150000000     0.927800000000     0.0449726  
H282     H      0.342790000000     0.546080000000     0.010600000000     0.0436227  
H283     H      0.300520000000     0.522620000000     0.949370000000     0.0442194  
H284     H      0.360750000000     0.497490000000     0.867590000000     0.0453238  
H285     H      0.478180000000     0.482820000000     0.110400000000     0.0450532  
H286     H      0.519630000000     0.550200000000     0.995000000000     0.0460305  
H287     H      0.554350000000     0.528280000000     0.974980000000     0.0450426  
H288     H      0.512890000000     0.460890000000     0.090380000000     0.0459892  
In1      In     0.437810000000     0.554770000000     0.086460000000     2.4175     
In2      In     0.594660000000     0.456260000000     0.999010000000     2.41756    
In3      In     0.923660000000     0.798600000000     0.146920000000     2.40792    
In4      In     0.776790000000     0.551090000000     0.280150000000     2.42755    
In5      In     0.256070000000     0.792290000000     0.299400000000     2.4248     
In6      In     0.105400000000     0.890310000000     0.427740000000     2.40988    
In7      In     0.597280000000     0.134120000000     0.500050000000     2.41101    
In8      In     0.436650000000     0.878840000000     0.584160000000     2.41078    
In9      In     0.927200000000     0.121290000000     0.654680000000     2.41096    
In10     In     0.778140000000     0.220810000000     0.784170000000     2.42543    
In11     In     0.255250000000     0.459740000000     0.805750000000     2.42748    
In12     In     0.108190000000     0.211640000000     0.936510000000     2.40719    
In13     In     0.897320000000     0.795860000000     0.646150000000     2.40823    
In14     In     0.800230000000     0.548600000000     0.775160000000     2.42825    
In15     In     0.224990000000     0.122030000000     0.157050000000     2.41809    
In16     In     0.475770000000     0.221880000000     0.285240000000     2.42846    
In17     In     0.888230000000     0.455340000000     0.495930000000     2.41529    
In18     In     0.145060000000     0.556420000000     0.589780000000     2.41555    
In19     In     0.135750000000     0.214850000000     0.437410000000     2.40866    
In20     In     0.232890000000     0.462600000000     0.310990000000     2.42872    
In21     In     0.467000000000     0.878630000000     0.083260000000     2.40519    
In22     In     0.567410000000     0.134400000000     0.000970000000     2.40514    
In23     In     0.808530000000     0.889170000000     0.925960000000     2.41498    
In24     In     0.557710000000     0.790420000000     0.798480000000     2.42745    
In25     In     0.146110000000     0.582560000000     0.089220000000     2.4082     
In26     In     0.888480000000     0.429660000000     0.996010000000     2.40747    
In27     In     0.225740000000     0.096340000000     0.651880000000     2.43143    
In28     In     0.475390000000     0.248760000000     0.781880000000     2.4282     
In29     In     0.232070000000     0.763200000000     0.809480000000     2.42606    
In30     In     0.135650000000     0.914160000000     0.936010000000     2.42138    
In31     In     0.567820000000     0.429550000000     0.500530000000     2.40434    
In32     In     0.463910000000     0.581870000000     0.584610000000     2.40439    
In33     In     0.897030000000     0.096100000000     0.148890000000     2.42537    
In34     In     0.802540000000     0.248730000000     0.275880000000     2.4262     
In35     In     0.806110000000     0.913800000000     0.433030000000     2.43127    
In36     In     0.556440000000     0.762300000000     0.303210000000     2.4282     
N1       N      0.713090000000     0.854090000000     0.387500000000    -0.175198   
N2       N      0.649340000000     0.815370000000     0.354400000000    -0.176013   
N3       N      0.868410000000     0.029610000000     0.256700000000    -0.176344   
N4       N      0.844220000000     0.981270000000     0.326430000000    -0.1762     
N5       N      0.865490000000     0.156600000000     0.192870000000    -0.175119   
N6       N      0.841840000000     0.196030000000     0.225020000000    -0.176015   
N7       N      0.482020000000     0.642710000000     0.471780000000    -0.177269   
N8       N      0.508670000000     0.690800000000     0.402040000000    -0.176007   
N9       N      0.529110000000     0.486290000000     0.531550000000    -0.174293   
N10      N      0.502850000000     0.525350000000     0.553280000000    -0.174211   
N11      N      0.191820000000     0.814860000000     0.861060000000    -0.176025   
N12      N      0.167440000000     0.853630000000     0.893400000000    -0.175017   
N13      N      0.522470000000     0.320270000000     0.682860000000    -0.175928   
N14      N      0.549140000000     0.368490000000     0.613290000000    -0.177285   
N15      N      0.186970000000     0.027690000000     0.756790000000    -0.175951   
N16      N      0.162710000000     0.979370000000     0.826560000000    -0.176652   
N17      N      0.318650000000     0.155500000000     0.698560000000    -0.175373   
N18      N      0.382380000000     0.194650000000     0.731480000000    -0.176023   
N19      N      0.845400000000     0.367940000000     0.108070000000    -0.177133   
N20      N      0.824900000000     0.319670000000     0.177230000000    -0.176003   
N21      N      0.189800000000     0.644100000000     0.977190000000    -0.177183   
N22      N      0.210310000000     0.692270000000     0.907900000000    -0.176022   
N23      N      0.050130000000     0.525610000000     0.054720000000    -0.174192   
N24      N      0.984490000000     0.487000000000     0.030020000000    -0.17393    
N25      N      0.534530000000     0.702160000000     0.747130000000    -0.175448   
N26      N      0.510510000000     0.646920000000     0.691030000000    -0.177203   
N27      N      0.863030000000     0.032280000000     0.037820000000    -0.177      
N28      N      0.839740000000     0.979320000000     0.976970000000    -0.175741   
N29      N      0.715110000000     0.853190000000     0.878850000000    -0.176062   
N30      N      0.651180000000     0.828700000000     0.846790000000    -0.176034   
N31      N      0.521740000000     0.153010000000     0.893150000000    -0.177438   
N32      N      0.498070000000     0.183800000000     0.835330000000    -0.17557    
N33      N      0.534850000000     0.827950000000     0.249370000000    -0.175621   
N34      N      0.511940000000     0.859340000000     0.191400000000    -0.177466   
N35      N      0.486200000000     0.837300000000     0.969550000000    -0.177268   
N36      N      0.512310000000     0.815700000000     0.899130000000    -0.175695   
N37      N      0.504630000000     0.973940000000     0.052820000000    -0.174267   
N38      N      0.529830000000     0.039120000000     0.031590000000    -0.174147   
N39      N      0.179730000000     0.524870000000     0.139130000000    -0.177481   
N40      N      0.202660000000     0.493720000000     0.197630000000    -0.174905   
N41      N      0.181360000000     0.195010000000     0.543940000000    -0.177421   
N42      N      0.204110000000     0.162390000000     0.599680000000    -0.17491    
N43      N      0.170530000000     0.307890000000     0.395200000000    -0.174756   
N44      N      0.194690000000     0.370950000000     0.362680000000    -0.176025   
N45      N      0.178960000000     0.648080000000     0.637730000000    -0.1773     
N46      N      0.201940000000     0.702250000000     0.695860000000    -0.174917   
N47      N      0.188460000000     0.537960000000     0.478080000000    -0.177221   
N48      N      0.209580000000     0.510540000000     0.409310000000    -0.176224   
N49      N      0.832380000000     0.309770000000     0.389400000000    -0.17502    
N50      N      0.854990000000     0.363860000000     0.447630000000    -0.177273   
N51      N      0.983930000000     0.493100000000     0.530570000000    -0.17396    
N52      N      0.049390000000     0.518940000000     0.555200000000    -0.174292   
N53      N      0.498180000000     0.309810000000     0.337050000000    -0.17544    
N54      N      0.521720000000     0.364820000000     0.393550000000    -0.177372   
N55      N      0.521850000000     0.197220000000     0.184840000000    -0.175769   
N56      N      0.548260000000     0.175860000000     0.114540000000    -0.177315   
N57      N      0.195300000000     0.032190000000     0.106010000000    -0.175716   
N58      N      0.171730000000     0.978750000000     0.046080000000    -0.177262   
N59      N      0.179840000000     0.148110000000     0.257180000000    -0.176103   
N60      N      0.154220000000     0.170870000000     0.326620000000    -0.176926   
N61      N      0.318400000000     0.158270000000     0.204300000000    -0.17603    
N62      N      0.382340000000     0.183040000000     0.236520000000    -0.176086   
N63      N      0.830890000000     0.517840000000     0.888460000000    -0.174852   
N64      N      0.854210000000     0.486980000000     0.946860000000    -0.177385   
N65      N      0.823560000000     0.500660000000     0.676840000000    -0.176185   
N66      N      0.844720000000     0.473370000000     0.607930000000    -0.177237   
N67      N      0.827840000000     0.847750000000     0.485020000000    -0.174844   
N68      N      0.850880000000     0.815190000000     0.540320000000    -0.177214   
N69      N      0.879760000000     0.840730000000     0.756610000000    -0.176943   
N70      N      0.854290000000     0.863590000000     0.826110000000    -0.176205   
N71      N      0.862350000000     0.702980000000     0.689520000000    -0.174765   
N72      N      0.838170000000     0.640070000000     0.722760000000    -0.176077   
N73      N      0.042750000000     0.194320000000     0.042350000000    -0.176428   
N74      N      0.986390000000     0.162240000000     0.097610000000    -0.174407   
N75      N      0.167460000000     0.179350000000     0.985400000000    -0.177742   
N76      N      0.198530000000     0.155590000000     0.042480000000    -0.175322   
N77      N      0.316670000000     0.490930000000     0.691590000000    -0.174957   
N78      N      0.371260000000     0.522570000000     0.632880000000    -0.177295   
N79      N      0.190030000000     0.483040000000     0.753730000000    -0.175492   
N80      N      0.160390000000     0.508250000000     0.696580000000    -0.17744    
N81      N      0.201740000000     0.367820000000     0.857320000000    -0.176334   
N82      N      0.164300000000     0.304770000000     0.891430000000    -0.174895   
N83      N      0.715560000000     0.190540000000     0.896980000000    -0.175367   
N84      N      0.660450000000     0.167720000000     0.954540000000    -0.177075   
N85      N      0.872790000000     0.365560000000     0.889920000000    -0.177269   
N86      N      0.843070000000     0.310170000000     0.833880000000    -0.175438   
N87      N      0.987310000000     0.159210000000     0.540150000000    -0.174594   
N88      N      0.043240000000     0.183720000000     0.484130000000    -0.176855   
N89      N      0.868030000000     0.030470000000     0.604620000000    -0.17636    
N90      N      0.837640000000     0.977280000000     0.544260000000    -0.176695   
N91      N      0.997710000000     0.142950000000     0.755370000000    -0.176123   
N92      N      0.045320000000     0.164890000000     0.826430000000    -0.176712   
N93      N      0.871590000000     0.158360000000     0.702750000000    -0.176247   
N94      N      0.833040000000     0.183090000000     0.735620000000    -0.176434   
N95      N      0.373600000000     0.861060000000     0.693990000000    -0.177628   
N96      N      0.319520000000     0.829900000000     0.753680000000    -0.175633   
N97      N      0.494230000000     0.843450000000     0.628370000000    -0.177097   
N98      N      0.525530000000     0.820090000000     0.685780000000    -0.175314   
N99      N      0.660460000000     0.151590000000     0.390540000000    -0.177617   
N100     N      0.714720000000     0.182440000000     0.331130000000    -0.175501   
N101     N      0.539480000000     0.169160000000     0.455400000000    -0.177168   
N102     N      0.508020000000     0.192360000000     0.398000000000    -0.175283   
N103     N      0.658920000000     0.175040000000     0.613430000000    -0.177329   
N104     N      0.707000000000     0.196140000000     0.683800000000    -0.175707   
N105     N      0.496560000000     0.973970000000     0.553360000000    -0.174368   
N106     N      0.537570000000     0.039020000000     0.531210000000    -0.174321   
N107     N      0.045550000000     0.851820000000     0.542380000000    -0.17482    
N108     N      0.989660000000     0.827110000000     0.598500000000    -0.17673    
N109     N      0.163870000000     0.981150000000     0.478190000000    -0.176387   
N110     N      0.194010000000     0.033890000000     0.539440000000    -0.176503   
N111     N      0.318750000000     0.822620000000     0.186690000000    -0.175439   
N112     N      0.373890000000     0.845420000000     0.129200000000    -0.177087   
N113     N      0.191420000000     0.702700000000     0.250170000000    -0.175401   
N114     N      0.161780000000     0.647060000000     0.194640000000    -0.177283   
N115     N      0.327080000000     0.817240000000     0.400080000000    -0.175594   
N116     N      0.375090000000     0.838330000000     0.470560000000    -0.17739    
N117     N      0.200600000000     0.829520000000     0.347450000000    -0.176384   
N118     N      0.161620000000     0.853840000000     0.379990000000    -0.176317   
N119     N      0.715340000000     0.520110000000     0.394290000000    -0.174981   
N120     N      0.660690000000     0.488650000000     0.452940000000    -0.177157   
N121     N      0.842230000000     0.528160000000     0.332470000000    -0.175501   
N122     N      0.872270000000     0.503270000000     0.389430000000    -0.177364   
N123     N      0.989340000000     0.816170000000     0.041310000000    -0.176097   
N124     N      0.045890000000     0.848220000000     0.986430000000    -0.174761   
N125     N      0.863900000000     0.830270000000     0.097950000000    -0.1776     
N126     N      0.832990000000     0.854250000000     0.041000000000    -0.175137   
N127     N      0.034630000000     0.868160000000     0.327320000000    -0.17623    
N128     N      0.986800000000     0.845830000000     0.256540000000    -0.176541   
N129     N      0.867620000000     0.705660000000     0.192900000000    -0.174861   
N130     N      0.830260000000     0.642780000000     0.227690000000    -0.176271   
N131     N      0.658040000000     0.502650000000     0.890180000000    -0.177426   
N132     N      0.712460000000     0.526490000000     0.831090000000    -0.175419   
N133     N      0.536900000000     0.363650000000     0.953860000000    -0.177353   
N134     N      0.505990000000     0.309310000000     0.895900000000    -0.175067   
N135     N      0.656460000000     0.475930000000     0.111670000000    -0.177351   
N136     N      0.704860000000     0.503040000000     0.181450000000    -0.176124   
N137     N      0.320650000000     0.484610000000     0.255200000000    -0.175415   
N138     N      0.374920000000     0.508460000000     0.195810000000    -0.177418   
N139     N      0.495310000000     0.647510000000     0.131180000000    -0.177288   
N140     N      0.526060000000     0.701890000000     0.189070000000    -0.175145   
N141     N      0.375640000000     0.534770000000     0.974190000000    -0.177251   
N142     N      0.327160000000     0.507620000000     0.904540000000    -0.176098   
N143     N      0.496320000000     0.518140000000     0.054210000000    -0.174516   
N144     N      0.536210000000     0.492950000000     0.031160000000    -0.174569   
O1       O      0.449150000000     0.607100000000     0.093770000000    -0.500123   
O2       O      0.485950000000     0.596520000000     0.114020000000    -0.503374   
O3       O      0.456430000000     0.519860000000     0.099740000000    -0.494656   
O4       O      0.421210000000     0.551870000000     0.163880000000    -0.504087   
O5       O      0.393510000000     0.553700000000     0.050730000000    -0.494741   
O6       O      0.396610000000     0.509320000000     0.121530000000    -0.497336   
O7       O      0.477230000000     0.553410000000     0.042030000000    -0.488006   
O8       O      0.423240000000     0.542090000000     0.008300000000    -0.500324   
O9       O      0.609100000000     0.468930000000     0.077200000000    -0.500279   
O10      O      0.638670000000     0.456920000000     0.035130000000    -0.494474   
O11      O      0.576120000000     0.491220000000     0.985680000000    -0.494784   
O12      O      0.611550000000     0.459270000000     0.921720000000    -0.504188   
O13      O      0.583070000000     0.403840000000     0.991540000000    -0.499866   
O14      O      0.636100000000     0.501710000000     0.964290000000    -0.497739   
O15      O      0.555250000000     0.457650000000     0.043350000000    -0.488348   
O16      O      0.546510000000     0.414710000000     0.971100000000    -0.503344   
O17      O      0.876740000000     0.790560000000     0.111820000000    -0.505797   
O18      O      0.908770000000     0.837150000000     0.140740000000    -0.502417   
O19      O      0.903990000000     0.744020000000     0.139400000000    -0.489821   
O20      O      0.942440000000     0.813430000000     0.070550000000    -0.501257   
O21      O      0.970520000000     0.841850000000     0.177670000000    -0.491363   
O22      O      0.964600000000     0.793060000000     0.113340000000    -0.494129   
O23      O      0.887450000000     0.760540000000     0.197880000000    -0.490643   
O24      O      0.937320000000     0.806370000000     0.226000000000    -0.492697   
O25      O      0.727020000000     0.534850000000     0.248160000000    -0.511824   
O26      O      0.756160000000     0.518910000000     0.212980000000    -0.485498   
O27      O      0.797130000000     0.605610000000     0.284700000000    -0.495501   
O28      O      0.745890000000     0.558140000000     0.336500000000    -0.480557   
O29      O      0.800810000000     0.520060000000     0.280400000000    -0.492411   
O30      O      0.751270000000     0.516710000000     0.342320000000    -0.500996   
O31      O      0.809290000000     0.587550000000     0.223360000000    -0.509024   
O32      O      0.821490000000     0.562300000000     0.324220000000    -0.509678   
O33      O      0.305000000000     0.826810000000     0.333090000000    -0.509155   
O34      O      0.276590000000     0.781070000000     0.366920000000    -0.483771   
O35      O      0.232320000000     0.823370000000     0.290180000000    -0.493591   
O36      O      0.281850000000     0.783300000000     0.237690000000    -0.502524   
O37      O      0.233040000000     0.737300000000     0.301020000000    -0.490496   
O38      O      0.288100000000     0.830400000000     0.243970000000    -0.48277    
O39      O      0.225390000000     0.798860000000     0.356390000000    -0.510257   
O40      O      0.211170000000     0.757460000000     0.256800000000    -0.508937   
O41      O      0.153940000000     0.930370000000     0.457500000000    -0.504896   
O42      O      0.118180000000     0.942670000000     0.437630000000    -0.495037   
O43      O      0.130410000000     0.860450000000     0.437600000000    -0.494413   
O44      O      0.072580000000     0.847630000000     0.476340000000    -0.478156   
O45      O      0.087520000000     0.900200000000     0.356120000000    -0.484443   
O46      O      0.085180000000     0.894860000000     0.499440000000    -0.495987   
O47      O      0.135770000000     0.883480000000     0.370460000000    -0.504902   
O48      O      0.053810000000     0.860730000000     0.398890000000    -0.507025   
O49      O      0.549050000000     0.127710000000     0.472780000000    -0.501853   
O50      O      0.585860000000     0.175150000000     0.492600000000    -0.497286   
O51      O      0.578200000000     0.080520000000     0.486380000000    -0.493551   
O52      O      0.638650000000     0.130170000000     0.464570000000    -0.497323   
O53      O      0.640830000000     0.177320000000     0.537470000000    -0.493408   
O54      O      0.614060000000     0.148350000000     0.422770000000    -0.503787   
O55      O      0.557310000000     0.093450000000     0.543820000000    -0.487247   
O56      O      0.612050000000     0.134720000000     0.577830000000    -0.500042   
O57      O      0.421710000000     0.878700000000     0.506580000000    -0.500107   
O58      O      0.393340000000     0.835690000000     0.546250000000    -0.49345    
O59      O      0.455830000000     0.932450000000     0.598050000000    -0.49357    
O60      O      0.420130000000     0.864710000000     0.661540000000    -0.504189   
O61      O      0.447860000000     0.837660000000     0.591420000000    -0.496805   
O62      O      0.395130000000     0.882470000000     0.619830000000    -0.497496   
O63      O      0.476750000000     0.919540000000     0.540620000000    -0.487204   
O64      O      0.484890000000     0.885070000000     0.610980000000    -0.501455   
O65      O      0.978790000000     0.150660000000     0.683730000000    -0.506271   
O66      O      0.944860000000     0.111190000000     0.726290000000    -0.484238   
O67      O      0.902610000000     0.151550000000     0.645010000000    -0.494432   
O68      O      0.960140000000     0.163710000000     0.605760000000    -0.47841    
O69      O      0.913640000000     0.068650000000     0.645650000000    -0.494991   
O70      O      0.947690000000     0.116370000000     0.583440000000    -0.496112   
O71      O      0.897010000000     0.128300000000     0.712010000000    -0.505285   
O72      O      0.878710000000     0.081690000000     0.624100000000    -0.504959   
O73      O      0.823130000000     0.255400000000     0.826800000000    -0.509152   
O74      O      0.801390000000     0.275840000000     0.782890000000    -0.490641   
O75      O      0.801530000000     0.189410000000     0.793060000000    -0.49388    
O76      O      0.752410000000     0.229840000000     0.845920000000    -0.502314   
O77      O      0.757710000000     0.232080000000     0.716580000000    -0.48392    
O78      O      0.746180000000     0.182740000000     0.839670000000    -0.482594   
O79      O      0.808640000000     0.214130000000     0.727010000000    -0.510303   
O80      O      0.728990000000     0.186570000000     0.750870000000    -0.50949    
O81      O      0.210500000000     0.448680000000     0.761930000000    -0.509708   
O82      O      0.231410000000     0.490940000000     0.805730000000    -0.492312   
O83      O      0.234890000000     0.405250000000     0.800620000000    -0.4957     
O84      O      0.286280000000     0.452870000000     0.749430000000    -0.480428   
O85      O      0.275780000000     0.491630000000     0.873210000000    -0.48563    
O86      O      0.280620000000     0.494130000000     0.743540000000    -0.500868   
O87      O      0.222750000000     0.423040000000     0.862290000000    -0.509      
O88      O      0.305070000000     0.476040000000     0.837610000000    -0.51172    
O89      O      0.094850000000     0.204020000000     0.857300000000    -0.492582   
O90      O      0.061270000000     0.168680000000     0.905440000000    -0.491799   
O91      O      0.127920000000     0.266180000000     0.944640000000    -0.490173   
O92      O      0.089780000000     0.197320000000     0.013140000000    -0.501349   
O93      O      0.155380000000     0.219460000000     0.970480000000    -0.505505   
O94      O      0.067120000000     0.217000000000     0.969960000000    -0.494316   
O95      O      0.144400000000     0.249910000000     0.885780000000    -0.490157   
O96      O      0.122310000000     0.172560000000     0.943540000000    -0.502558   
O97      O      0.884540000000     0.799210000000     0.723620000000    -0.497365   
O98      O      0.898940000000     0.840590000000     0.680410000000    -0.490293   
O99      O      0.862310000000     0.741110000000     0.638330000000    -0.489697   
O100     O      0.894540000000     0.812010000000     0.570260000000    -0.502738   
O101     O      0.952190000000     0.833580000000     0.643250000000    -0.497122   
O102     O      0.851070000000     0.790970000000     0.611780000000    -0.497268   
O103     O      0.897260000000     0.758120000000     0.694970000000    -0.492499   
O104     O      0.935580000000     0.788240000000     0.609120000000    -0.505109   
O105     O      0.767960000000     0.560160000000     0.820800000000    -0.51058    
O106     O      0.744420000000     0.517750000000     0.777380000000    -0.491657   
O107     O      0.835530000000     0.603170000000     0.778550000000    -0.494788   
O108     O      0.838520000000     0.556100000000     0.831430000000    -0.479705   
O109     O      0.788050000000     0.516140000000     0.708140000000    -0.485744   
O110     O      0.791250000000     0.513920000000     0.836560000000    -0.501121   
O111     O      0.803410000000     0.584680000000     0.718830000000    -0.508839   
O112     O      0.833810000000     0.533050000000     0.742800000000    -0.513039   
O113     O      0.234910000000     0.084920000000     0.122090000000    -0.505313   
O114     O      0.187390000000     0.068160000000     0.151120000000    -0.491218   
O115     O      0.280330000000     0.152760000000     0.147700000000    -0.493857   
O116     O      0.234330000000     0.161900000000     0.103380000000    -0.478744   
O117     O      0.194000000000     0.111800000000     0.225960000000    -0.483813   
O118     O      0.193960000000     0.114660000000     0.090930000000    -0.50016    
O119     O      0.262270000000     0.127510000000     0.213500000000    -0.50786    
O120     O      0.210350000000     0.156180000000     0.189180000000    -0.511012   
O121     O      0.489990000000     0.187710000000     0.251820000000    -0.510597   
O122     O      0.507920000000     0.233270000000     0.217640000000    -0.484884   
O123     O      0.420500000000     0.188890000000     0.293230000000    -0.492357   
O124     O      0.468820000000     0.184560000000     0.341870000000    -0.483034   
O125     O      0.507190000000     0.277190000000     0.285550000000    -0.490882   
O126     O      0.511690000000     0.231190000000     0.345590000000    -0.503355   
O127     O      0.438380000000     0.215410000000     0.228400000000    -0.510371   
O128     O      0.464190000000     0.254770000000     0.328680000000    -0.510346   
O129     O      0.895950000000     0.415590000000     0.465490000000    -0.503965   
O130     O      0.847780000000     0.402260000000     0.487180000000    -0.499258   
O131     O      0.942520000000     0.490890000000     0.483890000000    -0.492979   
O132     O      0.873780000000     0.459170000000     0.419380000000    -0.504406   
O133     O      0.844000000000     0.454790000000     0.531330000000    -0.49437    
O134     O      0.893790000000     0.501400000000     0.462600000000    -0.49685    
O135     O      0.928800000000     0.457220000000     0.541500000000    -0.488036   
O136     O      0.885430000000     0.466780000000     0.574290000000    -0.499732   
O137     O      0.147890000000     0.544890000000     0.511450000000    -0.499758   
O138     O      0.189160000000     0.556580000000     0.554640000000    -0.494267   
O139     O      0.090760000000     0.521070000000     0.601870000000    -0.493544   
O140     O      0.159320000000     0.552540000000     0.666430000000    -0.504154   
O141     O      0.185800000000     0.609380000000     0.598430000000    -0.499528   
O142     O      0.139140000000     0.510270000000     0.623270000000    -0.496918   
O143     O      0.104550000000     0.554690000000     0.544180000000    -0.48791    
O144     O      0.137710000000     0.596460000000     0.619940000000    -0.50426    
O145     O      0.097340000000     0.222550000000     0.473720000000    -0.504933   
O146     O      0.080830000000     0.177150000000     0.439830000000    -0.496534   
O147     O      0.170520000000     0.269550000000     0.445980000000    -0.489742   
O148     O      0.181740000000     0.219610000000     0.472580000000    -0.497777   
O149     O      0.133580000000     0.170120000000     0.402100000000    -0.490323   
O150     O      0.137880000000     0.198150000000     0.513180000000    -0.503608   
O151     O      0.135820000000     0.252750000000     0.388980000000    -0.492604   
O152     O      0.150080000000     0.212530000000     0.360470000000    -0.498331   
O153     O      0.199360000000     0.478240000000     0.343260000000    -0.513095   
O154     O      0.245010000000     0.494920000000     0.378150000000    -0.485984   
O155     O      0.197530000000     0.408080000000     0.307170000000    -0.495159   
O156     O      0.194720000000     0.455380000000     0.254680000000    -0.47988    
O157     O      0.288710000000     0.493410000000     0.308860000000    -0.491692   
O158     O      0.242140000000     0.497340000000     0.249570000000    -0.501219   
O159     O      0.229460000000     0.426320000000     0.367140000000    -0.508869   
O160     O      0.265170000000     0.450950000000     0.265550000000    -0.510588   
O161     O      0.426440000000     0.886020000000     0.112850000000    -0.501381   
O162     O      0.413060000000     0.838660000000     0.089890000000    -0.495775   
O163     O      0.502920000000     0.932230000000     0.097080000000    -0.491691   
O164     O      0.512440000000     0.882470000000     0.118670000000    -0.495939   
O165     O      0.465430000000     0.835060000000     0.045300000000    -0.493042   
O166     O      0.468770000000     0.862640000000     0.159620000000    -0.503381   
O167     O      0.468820000000     0.919530000000     0.039720000000    -0.487272   
O168     O      0.481400000000     0.878070000000     0.005490000000    -0.499003   
O169     O      0.568530000000     0.177880000000     0.038510000000    -0.493156   
O170     O      0.553630000000     0.135320000000     0.078980000000    -0.498932   
O171     O      0.531530000000     0.080800000000     0.987270000000    -0.491585   
O172     O      0.521700000000     0.130070000000     0.965830000000    -0.495726   
O173     O      0.621290000000     0.174450000000     0.993980000000    -0.496039   
O174     O      0.565310000000     0.150320000000     0.924680000000    -0.503095   
O175     O      0.565630000000     0.093550000000     0.044640000000    -0.486893   
O176     O      0.607950000000     0.127080000000     0.971120000000    -0.501721   
O177     O      0.824440000000     0.855740000000     0.894750000000    -0.510244   
O178     O      0.839020000000     0.899260000000     0.856530000000    -0.483904   
O179     O      0.753170000000     0.858880000000     0.935590000000    -0.494121   
O180     O      0.798530000000     0.848480000000     0.978410000000    -0.477702   
O181     O      0.847360000000     0.942530000000     0.933590000000    -0.491309   
O182     O      0.837710000000     0.895830000000     0.993950000000    -0.49862    
O183     O      0.771250000000     0.883480000000     0.869350000000    -0.507141   
O184     O      0.799230000000     0.927350000000     0.958670000000    -0.504533   
O185     O      0.568850000000     0.757170000000     0.755120000000    -0.510059   
O186     O      0.525970000000     0.735130000000     0.798510000000    -0.490621   
O187     O      0.613020000000     0.822920000000     0.790110000000    -0.492296   
O188     O      0.564760000000     0.827760000000     0.741780000000    -0.482939   
O189     O      0.525560000000     0.779240000000     0.866020000000    -0.484792   
O190     O      0.521720000000     0.781250000000     0.738270000000    -0.50348    
O191     O      0.595110000000     0.796770000000     0.855230000000    -0.510205   
O192     O      0.544170000000     0.825020000000     0.832210000000    -0.510279   
O193     O      0.138560000000     0.535280000000     0.120490000000    -0.503513   
O194     O      0.186670000000     0.570100000000     0.098750000000    -0.499741   
O195     O      0.091890000000     0.564200000000     0.101600000000    -0.491688   
O196     O      0.139800000000     0.622700000000     0.122160000000    -0.494753   
O197     O      0.150020000000     0.595960000000     0.010130000000    -0.497291   
O198     O      0.161080000000     0.601680000000     0.165350000000    -0.502425   
O199     O      0.105160000000     0.544190000000     0.043550000000    -0.486876   
O200     O      0.189750000000     0.627170000000     0.054640000000    -0.49407    
O201     O      0.885220000000     0.415950000000     0.074880000000    -0.497613   
O202     O      0.844890000000     0.385180000000     0.030990000000    -0.493772   
O203     O      0.942720000000     0.448250000000     0.983320000000    -0.491314   
O204     O      0.873600000000     0.410890000000     0.919700000000    -0.50241    
O205     O      0.847650000000     0.441790000000     0.986930000000    -0.499158   
O206     O      0.894690000000     0.389560000000     0.962620000000    -0.494722   
O207     O      0.929450000000     0.468270000000     0.041370000000    -0.486774   
O208     O      0.895660000000     0.476940000000     0.965270000000    -0.502748   
O209     O      0.224470000000     0.057140000000     0.698210000000    -0.514958   
O210     O      0.187450000000     0.068830000000     0.711670000000    -0.484964   
O211     O      0.280930000000     0.120220000000     0.643780000000    -0.49094    
O212     O      0.232840000000     0.065320000000     0.596010000000    -0.486676   
O213     O      0.195510000000     0.121640000000     0.652940000000    -0.488742   
O214     O      0.189490000000     0.068100000000     0.592670000000    -0.509731   
O215     O      0.262480000000     0.131460000000     0.706040000000    -0.508058   
O216     O      0.236760000000     0.139710000000     0.606330000000    -0.508004   
O217     O      0.463660000000     0.204280000000     0.825480000000    -0.509749   
O218     O      0.507100000000     0.225160000000     0.783310000000    -0.491224   
O219     O      0.420180000000     0.227600000000     0.788070000000    -0.492682   
O220     O      0.467510000000     0.278400000000     0.838670000000    -0.481835   
O221     O      0.507590000000     0.269720000000     0.714290000000    -0.4855     
O222     O      0.510490000000     0.274790000000     0.843190000000    -0.503216   
O223     O      0.438390000000     0.217090000000     0.725150000000    -0.510763   
O224     O      0.490700000000     0.297780000000     0.749840000000    -0.510684   
O225     O      0.264040000000     0.807670000000     0.764760000000    -0.510211   
O226     O      0.288000000000     0.788720000000     0.806960000000    -0.491612   
O227     O      0.196310000000     0.781940000000     0.804740000000    -0.49301    
O228     O      0.193860000000     0.732210000000     0.753470000000    -0.480838   
O229     O      0.244450000000     0.743810000000     0.877330000000    -0.48535    
O230     O      0.241480000000     0.738150000000     0.747660000000    -0.501785   
O231     O      0.226670000000     0.794400000000     0.866360000000    -0.510011   
O232     O      0.199860000000     0.713340000000     0.840820000000    -0.510837   
O233     O      0.169540000000     0.945180000000     0.876760000000    -0.511392   
O234     O      0.125280000000     0.945850000000     0.883970000000    -0.486133   
O235     O      0.166900000000     0.890790000000     0.945800000000    -0.488859   
O236     O      0.177700000000     0.949360000000     0.985150000000    -0.490839   
O237     O      0.079520000000     0.888510000000     0.932920000000    -0.487785   
O238     O      0.129900000000     0.940450000000     0.999770000000    -0.509111   
O239     O      0.135080000000     0.876770000000     0.885250000000    -0.50321    
O240     O      0.101820000000     0.871200000000     0.981770000000    -0.506366   
O241     O      0.621610000000     0.443150000000     0.493040000000    -0.4969     
O242     O      0.608420000000     0.477310000000     0.470320000000    -0.501624   
O243     O      0.531620000000     0.446900000000     0.486840000000    -0.491915   
O244     O      0.565310000000     0.411410000000     0.424200000000    -0.502456   
O245     O      0.568450000000     0.386670000000     0.536920000000    -0.493217   
O246     O      0.522000000000     0.388080000000     0.466030000000    -0.495497   
O247     O      0.565420000000     0.468230000000     0.544530000000    -0.487135   
O248     O      0.555240000000     0.415060000000     0.578960000000    -0.497693   
O249     O      0.475620000000     0.595970000000     0.505900000000    -0.497295   
O250     O      0.463500000000     0.624940000000     0.548560000000    -0.493575   
O251     O      0.500260000000     0.564670000000     0.598100000000    -0.491522   
O252     O      0.509930000000     0.623300000000     0.618740000000    -0.494875   
O253     O      0.410090000000     0.568060000000     0.592480000000    -0.497459   
O254     O      0.466670000000     0.600360000000     0.660770000000    -0.502149   
O255     O      0.466450000000     0.543320000000     0.540440000000    -0.48702    
O256     O      0.423580000000     0.534150000000     0.615340000000    -0.502065   
O257     O      0.930430000000     0.138910000000     0.102590000000    -0.507028   
O258     O      0.953150000000     0.122100000000     0.151560000000    -0.487245   
O259     O      0.866130000000     0.119870000000     0.139760000000    -0.489528   
O260     O      0.856370000000     0.062480000000     0.096720000000    -0.489177   
O261     O      0.907730000000     0.066220000000     0.203910000000    -0.485812   
O262     O      0.903750000000     0.068860000000     0.087380000000    -0.509281   
O263     O      0.897240000000     0.132760000000     0.200970000000    -0.504946   
O264     O      0.860790000000     0.061780000000     0.203300000000    -0.512976   
O265     O      0.835310000000     0.298320000000     0.244040000000    -0.510639   
O266     O      0.790300000000     0.268350000000     0.208170000000    -0.48511    
O267     O      0.837630000000     0.229190000000     0.281250000000    -0.492881   
O268     O      0.840700000000     0.279920000000     0.331870000000    -0.481075   
O269     O      0.746620000000     0.223530000000     0.277950000000    -0.49095    
O270     O      0.792980000000     0.273740000000     0.337590000000    -0.502071   
O271     O      0.807800000000     0.217410000000     0.219130000000    -0.510441   
O272     O      0.770200000000     0.204330000000     0.320490000000    -0.509866   
O273     O      0.795510000000     0.870830000000     0.479230000000    -0.507626   
O274     O      0.835980000000     0.888110000000     0.431240000000    -0.488665   
O275     O      0.750960000000     0.889840000000     0.441720000000    -0.490367   
O276     O      0.799140000000     0.945820000000     0.487300000000    -0.488266   
O277     O      0.845720000000     0.942690000000     0.375400000000    -0.485632   
O278     O      0.841870000000     0.942120000000     0.492690000000    -0.510703   
O279     O      0.769220000000     0.877880000000     0.379900000000    -0.507218   
O280     O      0.805430000000     0.950280000000     0.382650000000    -0.514517   
O281     O      0.540260000000     0.712970000000     0.334830000000    -0.510749   
O282     O      0.524270000000     0.741600000000     0.370890000000    -0.485624   
O283     O      0.611550000000     0.782700000000     0.297620000000    -0.492532   
O284     O      0.564450000000     0.732810000000     0.246370000000    -0.482      
O285     O      0.525170000000     0.786370000000     0.301350000000    -0.491788   
O286     O      0.521410000000     0.736310000000     0.241800000000    -0.502959   
O287     O      0.593420000000     0.793690000000     0.360180000000    -0.51039    
O288     O      0.568780000000     0.806940000000     0.259590000000    -0.51005    


